version 2
run General-0-20170619-13:55:53-11044
attr configname General
attr datetime 20170619-13:55:53
attr experiment General
attr inifile omnetpp.ini
attr iterationvars ""
attr iterationvars2 $repetition=0
attr measurement ""
attr network GridScenario
attr processid 11044
attr repetition 0
attr replication #0
attr resultdir results
attr runnumber 0
attr seedset 1
param **.coreDebug false
param **.debug false
param *.**.nic.mac1609_4.bitrate 6Mbps
param *.**.nic.mac1609_4.txPower 20mW
param *.**.nic.mac1609_4.useServiceChannel false
param *.**.nic.phy80211p.analogueModels "xmldoc(\"config.xml\")"
param *.**.nic.phy80211p.collectCollisionStatistics true
param *.**.nic.phy80211p.decider "xmldoc(\"config.xml\")"
param *.**.nic.phy80211p.sensitivity -89dBm
param *.**.nic.phy80211p.thermalNoise -110dBm
param *.**.nic.phy80211p.usePropagationDelay true
param *.**.nic.phy80211p.useThermalNoise true
param *.annotations.draw true
param *.connectionManager.alpha 2.0
param *.connectionManager.carrierFrequency "5.890e9 Hz"
param *.connectionManager.maxInterfDist 500m
param *.connectionManager.pMax 20mW
param *.connectionManager.sat -89dBm
param *.connectionManager.sendDirect true
param *.manager.autoShutdown true
param *.manager.host "\"localhost\""
param *.manager.launchConfig "xmldoc(\"manhattan.launchd.xml\")"
param *.manager.margin 25
param *.manager.moduleDisplayString "\"\""
param *.manager.moduleName "\"node\""
param *.manager.moduleType "\"org.car2x.veins.nodes.Car\""
param *.manager.port 9999
param *.manager.updateInterval 1s
param *.node[*0].veinsmobility.accidentCount 0
param *.node[*0].veinsmobility.accidentDuration 30s
param *.node[*0].veinsmobility.accidentStart 75s
param *.node[*].appl.debug false
param *.node[*].applType "\"VirusAppl\""
param *.node[*].mobilityType "\"TraCIMobility\""
param *.node[*].mobilityType.debug true
param *.node[*].veinsmobility.x 0
param *.node[*].veinsmobility.y 0
param *.node[*].veinsmobility.z 1.895
param *.node[*].veinsmobilityType "\"org.car2x.veins.modules.mobility.traci.TraCIMobility\""
param *.node[*].veinsmobilityType.debug true
param *.playgroundSizeX 1200m
param *.playgroundSizeY 900m
param *.playgroundSizeZ 50m
param *.world.use2D false
param *.world.useTorus false

scalar GridScenario.node[3].appl 	generatedWSMs 	0
scalar GridScenario.node[3].appl 	receivedWSMs 	0
scalar GridScenario.node[3].appl 	generatedBSMs 	0
scalar GridScenario.node[3].appl 	receivedBSMs 	0
scalar GridScenario.node[3].appl 	generatedWSAs 	0
scalar GridScenario.node[3].appl 	receivedWSAs 	0
scalar GridScenario.node[3].appl 	numInfectedSignal:count 	0
attr source  numInfectedSignal
attr title  "numInfected, count"
scalar GridScenario.node[3].appl 	numInfectedSignal:sum 	0
attr source  numInfectedSignal
attr title  "numInfected, sum"
scalar GridScenario.node[3].nic.phy80211p 	busyTime 	0
scalar GridScenario.node[3].nic.phy80211p 	ncollisions 	0
scalar GridScenario.node[3].nic.mac1609_4 	ReceivedUnicastPackets 	0
scalar GridScenario.node[3].nic.mac1609_4 	ReceivedBroadcasts 	0
scalar GridScenario.node[3].nic.mac1609_4 	SentPackets 	0
scalar GridScenario.node[3].nic.mac1609_4 	SNIRLostPackets 	0
scalar GridScenario.node[3].nic.mac1609_4 	RXTXLostPackets 	0
scalar GridScenario.node[3].nic.mac1609_4 	TotalLostPackets 	0
scalar GridScenario.node[3].nic.mac1609_4 	DroppedPacketsInMac 	0
scalar GridScenario.node[3].nic.mac1609_4 	TooLittleTime 	0
scalar GridScenario.node[3].nic.mac1609_4 	TimesIntoBackoff 	0
scalar GridScenario.node[3].nic.mac1609_4 	SlotsBackoff 	0
scalar GridScenario.node[3].nic.mac1609_4 	NumInternalContention 	0
scalar GridScenario.node[3].nic.mac1609_4 	totalBusyTime 	0
scalar GridScenario.node[3].veinsmobility 	startTime 	7
scalar GridScenario.node[3].veinsmobility 	totalTime 	16
scalar GridScenario.node[3].veinsmobility 	stopTime 	24
scalar GridScenario.node[3].veinsmobility 	minSpeed 	3.3333096226544
scalar GridScenario.node[3].veinsmobility 	maxSpeed 	13.898985317233
scalar GridScenario.node[3].veinsmobility 	totalDistance 	144.18416506449
scalar GridScenario.node[3].veinsmobility 	totalCO2Emission 	62.51278606025
scalar GridScenario.node[2].appl 	generatedWSMs 	0
scalar GridScenario.node[2].appl 	receivedWSMs 	0
scalar GridScenario.node[2].appl 	generatedBSMs 	0
scalar GridScenario.node[2].appl 	receivedBSMs 	0
scalar GridScenario.node[2].appl 	generatedWSAs 	0
scalar GridScenario.node[2].appl 	receivedWSAs 	0
scalar GridScenario.node[2].appl 	numInfectedSignal:count 	0
attr source  numInfectedSignal
attr title  "numInfected, count"
scalar GridScenario.node[2].appl 	numInfectedSignal:sum 	0
attr source  numInfectedSignal
attr title  "numInfected, sum"
scalar GridScenario.node[2].nic.phy80211p 	busyTime 	0
scalar GridScenario.node[2].nic.phy80211p 	ncollisions 	0
scalar GridScenario.node[2].nic.mac1609_4 	ReceivedUnicastPackets 	0
scalar GridScenario.node[2].nic.mac1609_4 	ReceivedBroadcasts 	0
scalar GridScenario.node[2].nic.mac1609_4 	SentPackets 	0
scalar GridScenario.node[2].nic.mac1609_4 	SNIRLostPackets 	0
scalar GridScenario.node[2].nic.mac1609_4 	RXTXLostPackets 	0
scalar GridScenario.node[2].nic.mac1609_4 	TotalLostPackets 	0
scalar GridScenario.node[2].nic.mac1609_4 	DroppedPacketsInMac 	0
scalar GridScenario.node[2].nic.mac1609_4 	TooLittleTime 	0
scalar GridScenario.node[2].nic.mac1609_4 	TimesIntoBackoff 	0
scalar GridScenario.node[2].nic.mac1609_4 	SlotsBackoff 	0
scalar GridScenario.node[2].nic.mac1609_4 	NumInternalContention 	0
scalar GridScenario.node[2].nic.mac1609_4 	totalBusyTime 	0
scalar GridScenario.node[2].veinsmobility 	startTime 	5
scalar GridScenario.node[2].veinsmobility 	totalTime 	25
scalar GridScenario.node[2].veinsmobility 	stopTime 	31
scalar GridScenario.node[2].veinsmobility 	minSpeed 	4.1145747673585
scalar GridScenario.node[2].veinsmobility 	maxSpeed 	13.899713766212
scalar GridScenario.node[2].veinsmobility 	totalDistance 	267.58431108129
scalar GridScenario.node[2].veinsmobility 	totalCO2Emission 	78.029350819362
scalar GridScenario.node[17].appl 	generatedWSMs 	5
scalar GridScenario.node[17].appl 	receivedWSMs 	30
scalar GridScenario.node[17].appl 	generatedBSMs 	0
scalar GridScenario.node[17].appl 	receivedBSMs 	0
scalar GridScenario.node[17].appl 	generatedWSAs 	0
scalar GridScenario.node[17].appl 	receivedWSAs 	0
scalar GridScenario.node[17].appl 	numInfectedSignal:count 	0
attr source  numInfectedSignal
attr title  "numInfected, count"
scalar GridScenario.node[17].appl 	numInfectedSignal:sum 	0
attr source  numInfectedSignal
attr title  "numInfected, sum"
scalar GridScenario.node[17].nic.phy80211p 	busyTime 	0.00058
scalar GridScenario.node[17].nic.phy80211p 	ncollisions 	0
scalar GridScenario.node[17].nic.mac1609_4 	ReceivedUnicastPackets 	0
scalar GridScenario.node[17].nic.mac1609_4 	ReceivedBroadcasts 	30
scalar GridScenario.node[17].nic.mac1609_4 	SentPackets 	5
scalar GridScenario.node[17].nic.mac1609_4 	SNIRLostPackets 	0
scalar GridScenario.node[17].nic.mac1609_4 	RXTXLostPackets 	0
scalar GridScenario.node[17].nic.mac1609_4 	TotalLostPackets 	0
scalar GridScenario.node[17].nic.mac1609_4 	DroppedPacketsInMac 	0
scalar GridScenario.node[17].nic.mac1609_4 	TooLittleTime 	0
scalar GridScenario.node[17].nic.mac1609_4 	TimesIntoBackoff 	5
scalar GridScenario.node[17].nic.mac1609_4 	SlotsBackoff 	9
scalar GridScenario.node[17].nic.mac1609_4 	NumInternalContention 	0
scalar GridScenario.node[17].nic.mac1609_4 	totalBusyTime 	0.008125
scalar GridScenario.node[17].veinsmobility 	startTime 	35
scalar GridScenario.node[17].veinsmobility 	totalTime 	11
scalar GridScenario.node[17].veinsmobility 	stopTime 	47
scalar GridScenario.node[17].veinsmobility 	minSpeed 	3.4081786956364
scalar GridScenario.node[17].veinsmobility 	maxSpeed 	11.554826760918
scalar GridScenario.node[17].veinsmobility 	totalDistance 	76.249738175842
scalar GridScenario.node[17].veinsmobility 	totalCO2Emission 	42.324578200489
scalar GridScenario.node[1].appl 	generatedWSMs 	10
scalar GridScenario.node[1].appl 	receivedWSMs 	79
scalar GridScenario.node[1].appl 	generatedBSMs 	0
scalar GridScenario.node[1].appl 	receivedBSMs 	0
scalar GridScenario.node[1].appl 	generatedWSAs 	0
scalar GridScenario.node[1].appl 	receivedWSAs 	0
scalar GridScenario.node[1].appl 	numInfectedSignal:count 	0
attr source  numInfectedSignal
attr title  "numInfected, count"
scalar GridScenario.node[1].appl 	numInfectedSignal:sum 	0
attr source  numInfectedSignal
attr title  "numInfected, sum"
scalar GridScenario.node[1].nic.phy80211p 	busyTime 	0.00035246153846154
scalar GridScenario.node[1].nic.phy80211p 	ncollisions 	0
scalar GridScenario.node[1].nic.mac1609_4 	ReceivedUnicastPackets 	0
scalar GridScenario.node[1].nic.mac1609_4 	ReceivedBroadcasts 	79
scalar GridScenario.node[1].nic.mac1609_4 	SentPackets 	10
scalar GridScenario.node[1].nic.mac1609_4 	SNIRLostPackets 	0
scalar GridScenario.node[1].nic.mac1609_4 	RXTXLostPackets 	0
scalar GridScenario.node[1].nic.mac1609_4 	TotalLostPackets 	0
scalar GridScenario.node[1].nic.mac1609_4 	DroppedPacketsInMac 	0
scalar GridScenario.node[1].nic.mac1609_4 	TooLittleTime 	0
scalar GridScenario.node[1].nic.mac1609_4 	TimesIntoBackoff 	10
scalar GridScenario.node[1].nic.mac1609_4 	SlotsBackoff 	13
scalar GridScenario.node[1].nic.mac1609_4 	NumInternalContention 	0
scalar GridScenario.node[1].nic.mac1609_4 	totalBusyTime 	0.020658
scalar GridScenario.node[1].veinsmobility 	startTime 	3
scalar GridScenario.node[1].veinsmobility 	totalTime 	51
scalar GridScenario.node[1].veinsmobility 	stopTime 	55
scalar GridScenario.node[1].veinsmobility 	minSpeed 	3.466348497403
scalar GridScenario.node[1].veinsmobility 	maxSpeed 	13.899092270576
scalar GridScenario.node[1].veinsmobility 	totalDistance 	495.19077857369
scalar GridScenario.node[1].veinsmobility 	totalCO2Emission 	163.3974159785
scalar GridScenario.node[19].appl 	generatedWSMs 	31
scalar GridScenario.node[19].appl 	receivedWSMs 	516
scalar GridScenario.node[19].appl 	generatedBSMs 	0
scalar GridScenario.node[19].appl 	receivedBSMs 	0
scalar GridScenario.node[19].appl 	generatedWSAs 	0
scalar GridScenario.node[19].appl 	receivedWSAs 	0
scalar GridScenario.node[19].appl 	numInfectedSignal:count 	0
attr source  numInfectedSignal
attr title  "numInfected, count"
scalar GridScenario.node[19].appl 	numInfectedSignal:sum 	0
attr source  numInfectedSignal
attr title  "numInfected, sum"
scalar GridScenario.node[19].nic.phy80211p 	busyTime 	0.0025133333333333
scalar GridScenario.node[19].nic.phy80211p 	ncollisions 	2
scalar GridScenario.node[19].nic.mac1609_4 	ReceivedUnicastPackets 	0
scalar GridScenario.node[19].nic.mac1609_4 	ReceivedBroadcasts 	516
scalar GridScenario.node[19].nic.mac1609_4 	SentPackets 	31
scalar GridScenario.node[19].nic.mac1609_4 	SNIRLostPackets 	4
scalar GridScenario.node[19].nic.mac1609_4 	RXTXLostPackets 	0
scalar GridScenario.node[19].nic.mac1609_4 	TotalLostPackets 	4
scalar GridScenario.node[19].nic.mac1609_4 	DroppedPacketsInMac 	0
scalar GridScenario.node[19].nic.mac1609_4 	TooLittleTime 	0
scalar GridScenario.node[19].nic.mac1609_4 	TimesIntoBackoff 	31
scalar GridScenario.node[19].nic.mac1609_4 	SlotsBackoff 	39
scalar GridScenario.node[19].nic.mac1609_4 	NumInternalContention 	0
scalar GridScenario.node[19].nic.mac1609_4 	totalBusyTime 	0.127399
scalar GridScenario.node[19].veinsmobility 	startTime 	39
scalar GridScenario.node[19].veinsmobility 	totalTime 	47
scalar GridScenario.node[19].veinsmobility 	stopTime 	87
scalar GridScenario.node[19].veinsmobility 	minSpeed 	3.5553788861354
scalar GridScenario.node[19].veinsmobility 	maxSpeed 	13.898826339437
scalar GridScenario.node[19].veinsmobility 	totalDistance 	477.75447530642
scalar GridScenario.node[19].veinsmobility 	totalCO2Emission 	152.95787456817
scalar GridScenario.node[18].appl 	generatedWSMs 	34
scalar GridScenario.node[18].appl 	receivedWSMs 	522
scalar GridScenario.node[18].appl 	generatedBSMs 	0
scalar GridScenario.node[18].appl 	receivedBSMs 	0
scalar GridScenario.node[18].appl 	generatedWSAs 	0
scalar GridScenario.node[18].appl 	receivedWSAs 	0
scalar GridScenario.node[18].appl 	numInfectedSignal:count 	0
attr source  numInfectedSignal
attr title  "numInfected, count"
scalar GridScenario.node[18].appl 	numInfectedSignal:sum 	0
attr source  numInfectedSignal
attr title  "numInfected, sum"
scalar GridScenario.node[18].nic.phy80211p 	busyTime 	0.002088
scalar GridScenario.node[18].nic.phy80211p 	ncollisions 	0
scalar GridScenario.node[18].nic.mac1609_4 	ReceivedUnicastPackets 	0
scalar GridScenario.node[18].nic.mac1609_4 	ReceivedBroadcasts 	522
scalar GridScenario.node[18].nic.mac1609_4 	SentPackets 	34
scalar GridScenario.node[18].nic.mac1609_4 	SNIRLostPackets 	0
scalar GridScenario.node[18].nic.mac1609_4 	RXTXLostPackets 	0
scalar GridScenario.node[18].nic.mac1609_4 	TotalLostPackets 	0
scalar GridScenario.node[18].nic.mac1609_4 	DroppedPacketsInMac 	0
scalar GridScenario.node[18].nic.mac1609_4 	TooLittleTime 	0
scalar GridScenario.node[18].nic.mac1609_4 	TimesIntoBackoff 	34
scalar GridScenario.node[18].nic.mac1609_4 	SlotsBackoff 	52
scalar GridScenario.node[18].nic.mac1609_4 	NumInternalContention 	0
scalar GridScenario.node[18].nic.mac1609_4 	totalBusyTime 	0.129026
scalar GridScenario.node[18].veinsmobility 	startTime 	37
scalar GridScenario.node[18].veinsmobility 	totalTime 	57
scalar GridScenario.node[18].veinsmobility 	stopTime 	95
scalar GridScenario.node[18].veinsmobility 	minSpeed 	3.4398209567338
scalar GridScenario.node[18].veinsmobility 	maxSpeed 	13.899938576569
scalar GridScenario.node[18].veinsmobility 	totalDistance 	620.89579438062
scalar GridScenario.node[18].veinsmobility 	totalCO2Emission 	167.8002100308
scalar GridScenario.node[22].appl 	generatedWSMs 	34
scalar GridScenario.node[22].appl 	receivedWSMs 	500
scalar GridScenario.node[22].appl 	generatedBSMs 	0
scalar GridScenario.node[22].appl 	receivedBSMs 	0
scalar GridScenario.node[22].appl 	generatedWSAs 	0
scalar GridScenario.node[22].appl 	receivedWSAs 	0
scalar GridScenario.node[22].appl 	numInfectedSignal:count 	1
attr source  numInfectedSignal
attr title  "numInfected, count"
scalar GridScenario.node[22].appl 	numInfectedSignal:sum 	2
attr source  numInfectedSignal
attr title  "numInfected, sum"
scalar GridScenario.node[22].nic.phy80211p 	busyTime 	0.0022396923076923
scalar GridScenario.node[22].nic.phy80211p 	ncollisions 	1
scalar GridScenario.node[22].nic.mac1609_4 	ReceivedUnicastPackets 	0
scalar GridScenario.node[22].nic.mac1609_4 	ReceivedBroadcasts 	500
scalar GridScenario.node[22].nic.mac1609_4 	SentPackets 	34
scalar GridScenario.node[22].nic.mac1609_4 	SNIRLostPackets 	2
scalar GridScenario.node[22].nic.mac1609_4 	RXTXLostPackets 	0
scalar GridScenario.node[22].nic.mac1609_4 	TotalLostPackets 	2
scalar GridScenario.node[22].nic.mac1609_4 	DroppedPacketsInMac 	0
scalar GridScenario.node[22].nic.mac1609_4 	TooLittleTime 	0
scalar GridScenario.node[22].nic.mac1609_4 	TimesIntoBackoff 	34
scalar GridScenario.node[22].nic.mac1609_4 	SlotsBackoff 	46
scalar GridScenario.node[22].nic.mac1609_4 	NumInternalContention 	0
scalar GridScenario.node[22].nic.mac1609_4 	totalBusyTime 	0.124154
scalar GridScenario.node[22].veinsmobility 	startTime 	45
scalar GridScenario.node[22].veinsmobility 	totalTime 	51
scalar GridScenario.node[22].veinsmobility 	stopTime 	97
scalar GridScenario.node[22].veinsmobility 	minSpeed 	3.4627599642482
scalar GridScenario.node[22].veinsmobility 	maxSpeed 	13.899481413094
scalar GridScenario.node[22].veinsmobility 	totalDistance 	494.47772213324
scalar GridScenario.node[22].veinsmobility 	totalCO2Emission 	163.63421680037
scalar GridScenario.node[12].appl 	generatedWSMs 	42
scalar GridScenario.node[12].appl 	receivedWSMs 	611
scalar GridScenario.node[12].appl 	generatedBSMs 	0
scalar GridScenario.node[12].appl 	receivedBSMs 	0
scalar GridScenario.node[12].appl 	generatedWSAs 	0
scalar GridScenario.node[12].appl 	receivedWSAs 	0
scalar GridScenario.node[12].appl 	numInfectedSignal:count 	0
attr source  numInfectedSignal
attr title  "numInfected, count"
scalar GridScenario.node[12].appl 	numInfectedSignal:sum 	0
attr source  numInfectedSignal
attr title  "numInfected, sum"
scalar GridScenario.node[12].nic.phy80211p 	busyTime 	0.0018060759493671
scalar GridScenario.node[12].nic.phy80211p 	ncollisions 	2
scalar GridScenario.node[12].nic.mac1609_4 	ReceivedUnicastPackets 	0
scalar GridScenario.node[12].nic.mac1609_4 	ReceivedBroadcasts 	611
scalar GridScenario.node[12].nic.mac1609_4 	SentPackets 	42
scalar GridScenario.node[12].nic.mac1609_4 	SNIRLostPackets 	4
scalar GridScenario.node[12].nic.mac1609_4 	RXTXLostPackets 	0
scalar GridScenario.node[12].nic.mac1609_4 	TotalLostPackets 	4
scalar GridScenario.node[12].nic.mac1609_4 	DroppedPacketsInMac 	0
scalar GridScenario.node[12].nic.mac1609_4 	TooLittleTime 	0
scalar GridScenario.node[12].nic.mac1609_4 	TimesIntoBackoff 	42
scalar GridScenario.node[12].nic.mac1609_4 	SlotsBackoff 	57
scalar GridScenario.node[12].nic.mac1609_4 	NumInternalContention 	0
scalar GridScenario.node[12].nic.mac1609_4 	totalBusyTime 	0.152002
scalar GridScenario.node[12].veinsmobility 	startTime 	25
scalar GridScenario.node[12].veinsmobility 	totalTime 	78
scalar GridScenario.node[12].veinsmobility 	stopTime 	104
scalar GridScenario.node[12].veinsmobility 	minSpeed 	3.439265831245
scalar GridScenario.node[12].veinsmobility 	maxSpeed 	13.899698189321
scalar GridScenario.node[12].veinsmobility 	totalDistance 	813.53995307888
scalar GridScenario.node[12].veinsmobility 	totalCO2Emission 	250.68550714352
scalar GridScenario.node[34].appl 	generatedWSMs 	24
scalar GridScenario.node[34].appl 	receivedWSMs 	506
scalar GridScenario.node[34].appl 	generatedBSMs 	0
scalar GridScenario.node[34].appl 	receivedBSMs 	0
scalar GridScenario.node[34].appl 	generatedWSAs 	0
scalar GridScenario.node[34].appl 	receivedWSAs 	0
scalar GridScenario.node[34].appl 	numInfectedSignal:count 	1
attr source  numInfectedSignal
attr title  "numInfected, count"
scalar GridScenario.node[34].appl 	numInfectedSignal:sum 	14
attr source  numInfectedSignal
attr title  "numInfected, sum"
scalar GridScenario.node[34].nic.phy80211p 	busyTime 	0.0030892631578947
scalar GridScenario.node[34].nic.phy80211p 	ncollisions 	0
scalar GridScenario.node[34].nic.mac1609_4 	ReceivedUnicastPackets 	0
scalar GridScenario.node[34].nic.mac1609_4 	ReceivedBroadcasts 	506
scalar GridScenario.node[34].nic.mac1609_4 	SentPackets 	24
scalar GridScenario.node[34].nic.mac1609_4 	SNIRLostPackets 	0
scalar GridScenario.node[34].nic.mac1609_4 	RXTXLostPackets 	0
scalar GridScenario.node[34].nic.mac1609_4 	TotalLostPackets 	0
scalar GridScenario.node[34].nic.mac1609_4 	DroppedPacketsInMac 	0
scalar GridScenario.node[34].nic.mac1609_4 	TooLittleTime 	0
scalar GridScenario.node[34].nic.mac1609_4 	TimesIntoBackoff 	24
scalar GridScenario.node[34].nic.mac1609_4 	SlotsBackoff 	30
scalar GridScenario.node[34].nic.mac1609_4 	NumInternalContention 	0
scalar GridScenario.node[34].nic.mac1609_4 	totalBusyTime 	0.122984
scalar GridScenario.node[34].veinsmobility 	startTime 	69
scalar GridScenario.node[34].veinsmobility 	totalTime 	37
scalar GridScenario.node[34].veinsmobility 	stopTime 	107
scalar GridScenario.node[34].veinsmobility 	minSpeed 	3.4544744102748
scalar GridScenario.node[34].veinsmobility 	maxSpeed 	13.898467158013
scalar GridScenario.node[34].veinsmobility 	totalDistance 	387.38443054207
scalar GridScenario.node[34].veinsmobility 	totalCO2Emission 	117.79947518227
scalar GridScenario.node[20].appl 	generatedWSMs 	43
scalar GridScenario.node[20].appl 	receivedWSMs 	744
scalar GridScenario.node[20].appl 	generatedBSMs 	0
scalar GridScenario.node[20].appl 	receivedBSMs 	0
scalar GridScenario.node[20].appl 	generatedWSAs 	0
scalar GridScenario.node[20].appl 	receivedWSAs 	0
scalar GridScenario.node[20].appl 	numInfectedSignal:count 	1
attr source  numInfectedSignal
attr title  "numInfected, count"
scalar GridScenario.node[20].appl 	numInfectedSignal:sum 	2
attr source  numInfectedSignal
attr title  "numInfected, sum"
scalar GridScenario.node[20].nic.phy80211p 	busyTime 	0.0025015652173913
scalar GridScenario.node[20].nic.phy80211p 	ncollisions 	0
scalar GridScenario.node[20].nic.mac1609_4 	ReceivedUnicastPackets 	0
scalar GridScenario.node[20].nic.mac1609_4 	ReceivedBroadcasts 	744
scalar GridScenario.node[20].nic.mac1609_4 	SentPackets 	43
scalar GridScenario.node[20].nic.mac1609_4 	SNIRLostPackets 	0
scalar GridScenario.node[20].nic.mac1609_4 	RXTXLostPackets 	0
scalar GridScenario.node[20].nic.mac1609_4 	TotalLostPackets 	0
scalar GridScenario.node[20].nic.mac1609_4 	DroppedPacketsInMac 	0
scalar GridScenario.node[20].nic.mac1609_4 	TooLittleTime 	0
scalar GridScenario.node[20].nic.mac1609_4 	TimesIntoBackoff 	61
scalar GridScenario.node[20].nic.mac1609_4 	SlotsBackoff 	87
scalar GridScenario.node[20].nic.mac1609_4 	NumInternalContention 	0
scalar GridScenario.node[20].nic.mac1609_4 	totalBusyTime 	0.182627
scalar GridScenario.node[20].veinsmobility 	startTime 	41
scalar GridScenario.node[20].veinsmobility 	totalTime 	68
scalar GridScenario.node[20].veinsmobility 	stopTime 	110
scalar GridScenario.node[20].veinsmobility 	minSpeed 	3.7218439264576
scalar GridScenario.node[20].veinsmobility 	maxSpeed 	13.899772440477
scalar GridScenario.node[20].veinsmobility 	totalDistance 	719.52964184083
scalar GridScenario.node[20].veinsmobility 	totalCO2Emission 	226.38348116204
scalar GridScenario.node[25].appl 	generatedWSMs 	40
scalar GridScenario.node[25].appl 	receivedWSMs 	1004
scalar GridScenario.node[25].appl 	generatedBSMs 	0
scalar GridScenario.node[25].appl 	receivedBSMs 	0
scalar GridScenario.node[25].appl 	generatedWSAs 	0
scalar GridScenario.node[25].appl 	receivedWSAs 	0
scalar GridScenario.node[25].appl 	numInfectedSignal:count 	1
attr source  numInfectedSignal
attr title  "numInfected, count"
scalar GridScenario.node[25].appl 	numInfectedSignal:sum 	7
attr source  numInfectedSignal
attr title  "numInfected, sum"
scalar GridScenario.node[25].nic.phy80211p 	busyTime 	0.0037569032258065
scalar GridScenario.node[25].nic.phy80211p 	ncollisions 	0
scalar GridScenario.node[25].nic.mac1609_4 	ReceivedUnicastPackets 	0
scalar GridScenario.node[25].nic.mac1609_4 	ReceivedBroadcasts 	1004
scalar GridScenario.node[25].nic.mac1609_4 	SentPackets 	40
scalar GridScenario.node[25].nic.mac1609_4 	SNIRLostPackets 	0
scalar GridScenario.node[25].nic.mac1609_4 	RXTXLostPackets 	0
scalar GridScenario.node[25].nic.mac1609_4 	TotalLostPackets 	0
scalar GridScenario.node[25].nic.mac1609_4 	DroppedPacketsInMac 	0
scalar GridScenario.node[25].nic.mac1609_4 	TooLittleTime 	0
scalar GridScenario.node[25].nic.mac1609_4 	TimesIntoBackoff 	40
scalar GridScenario.node[25].nic.mac1609_4 	SlotsBackoff 	55
scalar GridScenario.node[25].nic.mac1609_4 	NumInternalContention 	0
scalar GridScenario.node[25].nic.mac1609_4 	totalBusyTime 	0.242248
scalar GridScenario.node[25].veinsmobility 	startTime 	51
scalar GridScenario.node[25].veinsmobility 	totalTime 	61
scalar GridScenario.node[25].veinsmobility 	stopTime 	113
scalar GridScenario.node[25].veinsmobility 	minSpeed 	3.396654226212
scalar GridScenario.node[25].veinsmobility 	maxSpeed 	13.899564029528
scalar GridScenario.node[25].veinsmobility 	totalDistance 	672.20400610511
scalar GridScenario.node[25].veinsmobility 	totalCO2Emission 	184.59990836293
scalar GridScenario.node[0].appl 	generatedWSMs 	48
scalar GridScenario.node[0].appl 	receivedWSMs 	812
scalar GridScenario.node[0].appl 	generatedBSMs 	0
scalar GridScenario.node[0].appl 	receivedBSMs 	0
scalar GridScenario.node[0].appl 	generatedWSAs 	0
scalar GridScenario.node[0].appl 	receivedWSAs 	0
scalar GridScenario.node[0].appl 	numInfectedSignal:count 	0
attr source  numInfectedSignal
attr title  "numInfected, count"
scalar GridScenario.node[0].appl 	numInfectedSignal:sum 	0
attr source  numInfectedSignal
attr title  "numInfected, sum"
scalar GridScenario.node[0].nic.phy80211p 	busyTime 	0.0016524912280702
scalar GridScenario.node[0].nic.phy80211p 	ncollisions 	0
scalar GridScenario.node[0].nic.mac1609_4 	ReceivedUnicastPackets 	0
scalar GridScenario.node[0].nic.mac1609_4 	ReceivedBroadcasts 	812
scalar GridScenario.node[0].nic.mac1609_4 	SentPackets 	48
scalar GridScenario.node[0].nic.mac1609_4 	SNIRLostPackets 	0
scalar GridScenario.node[0].nic.mac1609_4 	RXTXLostPackets 	0
scalar GridScenario.node[0].nic.mac1609_4 	TotalLostPackets 	0
scalar GridScenario.node[0].nic.mac1609_4 	DroppedPacketsInMac 	0
scalar GridScenario.node[0].nic.mac1609_4 	TooLittleTime 	0
scalar GridScenario.node[0].nic.mac1609_4 	TimesIntoBackoff 	48
scalar GridScenario.node[0].nic.mac1609_4 	SlotsBackoff 	79
scalar GridScenario.node[0].nic.mac1609_4 	NumInternalContention 	0
scalar GridScenario.node[0].nic.mac1609_4 	totalBusyTime 	0.199568
scalar GridScenario.node[0].veinsmobility 	startTime 	1
scalar GridScenario.node[0].veinsmobility 	totalTime 	113
scalar GridScenario.node[0].veinsmobility 	stopTime 	115
scalar GridScenario.node[0].veinsmobility 	minSpeed 	0.06140050049422
scalar GridScenario.node[0].veinsmobility 	maxSpeed 	13.899615807339
scalar GridScenario.node[0].veinsmobility 	totalDistance 	1197.3561330868
scalar GridScenario.node[0].veinsmobility 	totalCO2Emission 	321.98862451929
scalar GridScenario.node[6].appl 	generatedWSMs 	47
scalar GridScenario.node[6].appl 	receivedWSMs 	1135
scalar GridScenario.node[6].appl 	generatedBSMs 	0
scalar GridScenario.node[6].appl 	receivedBSMs 	0
scalar GridScenario.node[6].appl 	generatedWSAs 	0
scalar GridScenario.node[6].appl 	receivedWSAs 	0
scalar GridScenario.node[6].appl 	numInfectedSignal:count 	0
attr source  numInfectedSignal
attr title  "numInfected, count"
scalar GridScenario.node[6].appl 	numInfectedSignal:sum 	0
attr source  numInfectedSignal
attr title  "numInfected, sum"
scalar GridScenario.node[6].nic.phy80211p 	busyTime 	0.0025078095238096
scalar GridScenario.node[6].nic.phy80211p 	ncollisions 	0
scalar GridScenario.node[6].nic.mac1609_4 	ReceivedUnicastPackets 	0
scalar GridScenario.node[6].nic.mac1609_4 	ReceivedBroadcasts 	1135
scalar GridScenario.node[6].nic.mac1609_4 	SentPackets 	47
scalar GridScenario.node[6].nic.mac1609_4 	SNIRLostPackets 	0
scalar GridScenario.node[6].nic.mac1609_4 	RXTXLostPackets 	0
scalar GridScenario.node[6].nic.mac1609_4 	TotalLostPackets 	0
scalar GridScenario.node[6].nic.mac1609_4 	DroppedPacketsInMac 	0
scalar GridScenario.node[6].nic.mac1609_4 	TooLittleTime 	0
scalar GridScenario.node[6].nic.mac1609_4 	TimesIntoBackoff 	47
scalar GridScenario.node[6].nic.mac1609_4 	SlotsBackoff 	64
scalar GridScenario.node[6].nic.mac1609_4 	NumInternalContention 	0
scalar GridScenario.node[6].nic.mac1609_4 	totalBusyTime 	0.274271
scalar GridScenario.node[6].veinsmobility 	startTime 	13
scalar GridScenario.node[6].veinsmobility 	totalTime 	104
scalar GridScenario.node[6].veinsmobility 	stopTime 	118
scalar GridScenario.node[6].veinsmobility 	minSpeed 	3.9257185769121
scalar GridScenario.node[6].veinsmobility 	maxSpeed 	13.899987565413
scalar GridScenario.node[6].veinsmobility 	totalDistance 	1172.9970371036
scalar GridScenario.node[6].veinsmobility 	totalCO2Emission 	307.98097507524
scalar GridScenario.node[16].appl 	generatedWSMs 	50
scalar GridScenario.node[16].appl 	receivedWSMs 	810
scalar GridScenario.node[16].appl 	generatedBSMs 	0
scalar GridScenario.node[16].appl 	receivedBSMs 	0
scalar GridScenario.node[16].appl 	generatedWSAs 	0
scalar GridScenario.node[16].appl 	receivedWSAs 	0
scalar GridScenario.node[16].appl 	numInfectedSignal:count 	0
attr source  numInfectedSignal
attr title  "numInfected, count"
scalar GridScenario.node[16].appl 	numInfectedSignal:sum 	0
attr source  numInfectedSignal
attr title  "numInfected, sum"
scalar GridScenario.node[16].nic.phy80211p 	busyTime 	0.0021851162790698
scalar GridScenario.node[16].nic.phy80211p 	ncollisions 	0
scalar GridScenario.node[16].nic.mac1609_4 	ReceivedUnicastPackets 	0
scalar GridScenario.node[16].nic.mac1609_4 	ReceivedBroadcasts 	810
scalar GridScenario.node[16].nic.mac1609_4 	SentPackets 	50
scalar GridScenario.node[16].nic.mac1609_4 	SNIRLostPackets 	0
scalar GridScenario.node[16].nic.mac1609_4 	RXTXLostPackets 	0
scalar GridScenario.node[16].nic.mac1609_4 	TotalLostPackets 	0
scalar GridScenario.node[16].nic.mac1609_4 	DroppedPacketsInMac 	0
scalar GridScenario.node[16].nic.mac1609_4 	TooLittleTime 	0
scalar GridScenario.node[16].nic.mac1609_4 	TimesIntoBackoff 	50
scalar GridScenario.node[16].nic.mac1609_4 	SlotsBackoff 	85
scalar GridScenario.node[16].nic.mac1609_4 	NumInternalContention 	0
scalar GridScenario.node[16].nic.mac1609_4 	totalBusyTime 	0.19957
scalar GridScenario.node[16].veinsmobility 	startTime 	33
scalar GridScenario.node[16].veinsmobility 	totalTime 	85
scalar GridScenario.node[16].veinsmobility 	stopTime 	119
scalar GridScenario.node[16].veinsmobility 	minSpeed 	3.301420889867
scalar GridScenario.node[16].veinsmobility 	maxSpeed 	13.899921593915
scalar GridScenario.node[16].veinsmobility 	totalDistance 	954.07898506202
scalar GridScenario.node[16].veinsmobility 	totalCO2Emission 	262.17539307397
scalar GridScenario.node[7].appl 	generatedWSMs 	53
scalar GridScenario.node[7].appl 	receivedWSMs 	1074
scalar GridScenario.node[7].appl 	generatedBSMs 	0
scalar GridScenario.node[7].appl 	receivedBSMs 	0
scalar GridScenario.node[7].appl 	generatedWSAs 	0
scalar GridScenario.node[7].appl 	receivedWSAs 	0
scalar GridScenario.node[7].appl 	numInfectedSignal:count 	0
attr source  numInfectedSignal
attr title  "numInfected, count"
scalar GridScenario.node[7].appl 	numInfectedSignal:sum 	0
attr source  numInfectedSignal
attr title  "numInfected, sum"
scalar GridScenario.node[7].nic.phy80211p 	busyTime 	0.0023818666666667
scalar GridScenario.node[7].nic.phy80211p 	ncollisions 	2
scalar GridScenario.node[7].nic.mac1609_4 	ReceivedUnicastPackets 	0
scalar GridScenario.node[7].nic.mac1609_4 	ReceivedBroadcasts 	1074
scalar GridScenario.node[7].nic.mac1609_4 	SentPackets 	53
scalar GridScenario.node[7].nic.mac1609_4 	SNIRLostPackets 	4
scalar GridScenario.node[7].nic.mac1609_4 	RXTXLostPackets 	0
scalar GridScenario.node[7].nic.mac1609_4 	TotalLostPackets 	4
scalar GridScenario.node[7].nic.mac1609_4 	DroppedPacketsInMac 	0
scalar GridScenario.node[7].nic.mac1609_4 	TooLittleTime 	0
scalar GridScenario.node[7].nic.mac1609_4 	TimesIntoBackoff 	53
scalar GridScenario.node[7].nic.mac1609_4 	SlotsBackoff 	81
scalar GridScenario.node[7].nic.mac1609_4 	NumInternalContention 	0
scalar GridScenario.node[7].nic.mac1609_4 	totalBusyTime 	0.261981
scalar GridScenario.node[7].veinsmobility 	startTime 	15
scalar GridScenario.node[7].veinsmobility 	totalTime 	104
scalar GridScenario.node[7].veinsmobility 	stopTime 	120
scalar GridScenario.node[7].veinsmobility 	minSpeed 	3.294249733648
scalar GridScenario.node[7].veinsmobility 	maxSpeed 	13.899942069809
scalar GridScenario.node[7].veinsmobility 	totalDistance 	1177.4660121318
scalar GridScenario.node[7].veinsmobility 	totalCO2Emission 	301.77845120952
scalar GridScenario.node[36].appl 	generatedWSMs 	30
scalar GridScenario.node[36].appl 	receivedWSMs 	843
scalar GridScenario.node[36].appl 	generatedBSMs 	0
scalar GridScenario.node[36].appl 	receivedBSMs 	0
scalar GridScenario.node[36].appl 	generatedWSAs 	0
scalar GridScenario.node[36].appl 	receivedWSAs 	0
scalar GridScenario.node[36].appl 	numInfectedSignal:count 	1
attr source  numInfectedSignal
attr title  "numInfected, count"
scalar GridScenario.node[36].appl 	numInfectedSignal:sum 	18
attr source  numInfectedSignal
attr title  "numInfected, sum"
scalar GridScenario.node[36].nic.phy80211p 	busyTime 	0.0041611914893618
scalar GridScenario.node[36].nic.phy80211p 	ncollisions 	0
scalar GridScenario.node[36].nic.mac1609_4 	ReceivedUnicastPackets 	0
scalar GridScenario.node[36].nic.mac1609_4 	ReceivedBroadcasts 	843
scalar GridScenario.node[36].nic.mac1609_4 	SentPackets 	30
scalar GridScenario.node[36].nic.mac1609_4 	SNIRLostPackets 	0
scalar GridScenario.node[36].nic.mac1609_4 	RXTXLostPackets 	0
scalar GridScenario.node[36].nic.mac1609_4 	TotalLostPackets 	0
scalar GridScenario.node[36].nic.mac1609_4 	DroppedPacketsInMac 	0
scalar GridScenario.node[36].nic.mac1609_4 	TooLittleTime 	0
scalar GridScenario.node[36].nic.mac1609_4 	TimesIntoBackoff 	30
scalar GridScenario.node[36].nic.mac1609_4 	SlotsBackoff 	50
scalar GridScenario.node[36].nic.mac1609_4 	NumInternalContention 	0
scalar GridScenario.node[36].nic.mac1609_4 	totalBusyTime 	0.202566
scalar GridScenario.node[36].veinsmobility 	startTime 	73
scalar GridScenario.node[36].veinsmobility 	totalTime 	46
scalar GridScenario.node[36].veinsmobility 	stopTime 	120
scalar GridScenario.node[36].veinsmobility 	minSpeed 	4.0404263753197
scalar GridScenario.node[36].veinsmobility 	maxSpeed 	13.899619514108
scalar GridScenario.node[36].veinsmobility 	totalDistance 	460.17702061974
scalar GridScenario.node[36].veinsmobility 	totalCO2Emission 	159.23153480983
scalar GridScenario.node[15].appl 	generatedWSMs 	52
scalar GridScenario.node[15].appl 	receivedWSMs 	960
scalar GridScenario.node[15].appl 	generatedBSMs 	0
scalar GridScenario.node[15].appl 	receivedBSMs 	0
scalar GridScenario.node[15].appl 	generatedWSAs 	0
scalar GridScenario.node[15].appl 	receivedWSAs 	0
scalar GridScenario.node[15].appl 	numInfectedSignal:count 	0
attr source  numInfectedSignal
attr title  "numInfected, count"
scalar GridScenario.node[15].appl 	numInfectedSignal:sum 	0
attr source  numInfectedSignal
attr title  "numInfected, sum"
scalar GridScenario.node[15].nic.phy80211p 	busyTime 	0.0025128988764045
scalar GridScenario.node[15].nic.phy80211p 	ncollisions 	2
scalar GridScenario.node[15].nic.mac1609_4 	ReceivedUnicastPackets 	0
scalar GridScenario.node[15].nic.mac1609_4 	ReceivedBroadcasts 	960
scalar GridScenario.node[15].nic.mac1609_4 	SentPackets 	52
scalar GridScenario.node[15].nic.mac1609_4 	SNIRLostPackets 	4
scalar GridScenario.node[15].nic.mac1609_4 	RXTXLostPackets 	0
scalar GridScenario.node[15].nic.mac1609_4 	TotalLostPackets 	4
scalar GridScenario.node[15].nic.mac1609_4 	DroppedPacketsInMac 	0
scalar GridScenario.node[15].nic.mac1609_4 	TooLittleTime 	0
scalar GridScenario.node[15].nic.mac1609_4 	TimesIntoBackoff 	71
scalar GridScenario.node[15].nic.mac1609_4 	SlotsBackoff 	105
scalar GridScenario.node[15].nic.mac1609_4 	NumInternalContention 	0
scalar GridScenario.node[15].nic.mac1609_4 	totalBusyTime 	0.2353
scalar GridScenario.node[15].veinsmobility 	startTime 	31
scalar GridScenario.node[15].veinsmobility 	totalTime 	88
scalar GridScenario.node[15].veinsmobility 	stopTime 	120
scalar GridScenario.node[15].veinsmobility 	minSpeed 	3.354742808543
scalar GridScenario.node[15].veinsmobility 	maxSpeed 	13.899592475337
scalar GridScenario.node[15].veinsmobility 	totalDistance 	873.10961063162
scalar GridScenario.node[15].veinsmobility 	totalCO2Emission 	284.17993883208
scalar GridScenario.node[10].appl 	generatedWSMs 	50
scalar GridScenario.node[10].appl 	receivedWSMs 	1104
scalar GridScenario.node[10].appl 	generatedBSMs 	0
scalar GridScenario.node[10].appl 	receivedBSMs 	0
scalar GridScenario.node[10].appl 	generatedWSAs 	0
scalar GridScenario.node[10].appl 	receivedWSAs 	0
scalar GridScenario.node[10].appl 	numInfectedSignal:count 	0
attr source  numInfectedSignal
attr title  "numInfected, count"
scalar GridScenario.node[10].appl 	numInfectedSignal:sum 	0
attr source  numInfectedSignal
attr title  "numInfected, sum"
scalar GridScenario.node[10].nic.phy80211p 	busyTime 	0.0024972367815055
scalar GridScenario.node[10].nic.phy80211p 	ncollisions 	0
scalar GridScenario.node[10].nic.mac1609_4 	ReceivedUnicastPackets 	0
scalar GridScenario.node[10].nic.mac1609_4 	ReceivedBroadcasts 	1104
scalar GridScenario.node[10].nic.mac1609_4 	SentPackets 	50
scalar GridScenario.node[10].nic.mac1609_4 	SNIRLostPackets 	0
scalar GridScenario.node[10].nic.mac1609_4 	RXTXLostPackets 	0
scalar GridScenario.node[10].nic.mac1609_4 	TotalLostPackets 	0
scalar GridScenario.node[10].nic.mac1609_4 	DroppedPacketsInMac 	0
scalar GridScenario.node[10].nic.mac1609_4 	TooLittleTime 	0
scalar GridScenario.node[10].nic.mac1609_4 	TimesIntoBackoff 	50
scalar GridScenario.node[10].nic.mac1609_4 	SlotsBackoff 	71
scalar GridScenario.node[10].nic.mac1609_4 	NumInternalContention 	0
scalar GridScenario.node[10].nic.mac1609_4 	totalBusyTime 	0.267778
scalar GridScenario.node[10].veinsmobility 	startTime 	21
scalar GridScenario.node[10].veinsmobility 	totalTime 	102
scalar GridScenario.node[10].veinsmobility 	stopTime 	123.5645633193
scalar GridScenario.node[10].veinsmobility 	minSpeed 	0
scalar GridScenario.node[10].veinsmobility 	maxSpeed 	13.899766991738
scalar GridScenario.node[10].veinsmobility 	totalDistance 	948.90459228292
scalar GridScenario.node[10].veinsmobility 	totalCO2Emission 	313.62927129517
scalar GridScenario.node[11].appl 	generatedWSMs 	50
scalar GridScenario.node[11].appl 	receivedWSMs 	805
scalar GridScenario.node[11].appl 	generatedBSMs 	0
scalar GridScenario.node[11].appl 	receivedBSMs 	0
scalar GridScenario.node[11].appl 	generatedWSAs 	0
scalar GridScenario.node[11].appl 	receivedWSAs 	0
scalar GridScenario.node[11].appl 	numInfectedSignal:count 	0
attr source  numInfectedSignal
attr title  "numInfected, count"
scalar GridScenario.node[11].appl 	numInfectedSignal:sum 	0
attr source  numInfectedSignal
attr title  "numInfected, sum"
scalar GridScenario.node[11].nic.phy80211p 	busyTime 	0.0018571154076116
scalar GridScenario.node[11].nic.phy80211p 	ncollisions 	0
scalar GridScenario.node[11].nic.mac1609_4 	ReceivedUnicastPackets 	0
scalar GridScenario.node[11].nic.mac1609_4 	ReceivedBroadcasts 	805
scalar GridScenario.node[11].nic.mac1609_4 	SentPackets 	50
scalar GridScenario.node[11].nic.mac1609_4 	SNIRLostPackets 	0
scalar GridScenario.node[11].nic.mac1609_4 	RXTXLostPackets 	0
scalar GridScenario.node[11].nic.mac1609_4 	TotalLostPackets 	0
scalar GridScenario.node[11].nic.mac1609_4 	DroppedPacketsInMac 	0
scalar GridScenario.node[11].nic.mac1609_4 	TooLittleTime 	0
scalar GridScenario.node[11].nic.mac1609_4 	TimesIntoBackoff 	50
scalar GridScenario.node[11].nic.mac1609_4 	SlotsBackoff 	74
scalar GridScenario.node[11].nic.mac1609_4 	NumInternalContention 	0
scalar GridScenario.node[11].nic.mac1609_4 	totalBusyTime 	0.19841
scalar GridScenario.node[11].veinsmobility 	startTime 	23
scalar GridScenario.node[11].veinsmobility 	totalTime 	100
scalar GridScenario.node[11].veinsmobility 	stopTime 	123.5645633193
scalar GridScenario.node[11].veinsmobility 	minSpeed 	3.3029805172572
scalar GridScenario.node[11].veinsmobility 	maxSpeed 	13.899480035719
scalar GridScenario.node[11].veinsmobility 	totalDistance 	989.57200701669
scalar GridScenario.node[11].veinsmobility 	totalCO2Emission 	333.11166205843
scalar GridScenario.node[13].appl 	generatedWSMs 	54
scalar GridScenario.node[13].appl 	receivedWSMs 	1253
scalar GridScenario.node[13].appl 	generatedBSMs 	0
scalar GridScenario.node[13].appl 	receivedBSMs 	0
scalar GridScenario.node[13].appl 	generatedWSAs 	0
scalar GridScenario.node[13].appl 	receivedWSAs 	0
scalar GridScenario.node[13].appl 	numInfectedSignal:count 	0
attr source  numInfectedSignal
attr title  "numInfected, count"
scalar GridScenario.node[13].appl 	numInfectedSignal:sum 	0
attr source  numInfectedSignal
attr title  "numInfected, sum"
scalar GridScenario.node[13].nic.phy80211p 	busyTime 	0.003010379688031
scalar GridScenario.node[13].nic.phy80211p 	ncollisions 	0
scalar GridScenario.node[13].nic.mac1609_4 	ReceivedUnicastPackets 	0
scalar GridScenario.node[13].nic.mac1609_4 	ReceivedBroadcasts 	1253
scalar GridScenario.node[13].nic.mac1609_4 	SentPackets 	54
scalar GridScenario.node[13].nic.mac1609_4 	SNIRLostPackets 	0
scalar GridScenario.node[13].nic.mac1609_4 	RXTXLostPackets 	0
scalar GridScenario.node[13].nic.mac1609_4 	TotalLostPackets 	0
scalar GridScenario.node[13].nic.mac1609_4 	DroppedPacketsInMac 	0
scalar GridScenario.node[13].nic.mac1609_4 	TooLittleTime 	0
scalar GridScenario.node[13].nic.mac1609_4 	TimesIntoBackoff 	54
scalar GridScenario.node[13].nic.mac1609_4 	SlotsBackoff 	80
scalar GridScenario.node[13].nic.mac1609_4 	NumInternalContention 	0
scalar GridScenario.node[13].nic.mac1609_4 	totalBusyTime 	0.303278
scalar GridScenario.node[13].veinsmobility 	startTime 	27
scalar GridScenario.node[13].veinsmobility 	totalTime 	96
scalar GridScenario.node[13].veinsmobility 	stopTime 	123.5645633193
scalar GridScenario.node[13].veinsmobility 	minSpeed 	3.3299366831449
scalar GridScenario.node[13].veinsmobility 	maxSpeed 	13.899667216859
scalar GridScenario.node[13].veinsmobility 	totalDistance 	968.34405082104
scalar GridScenario.node[13].veinsmobility 	totalCO2Emission 	324.45097505336
scalar GridScenario.node[14].appl 	generatedWSMs 	54
scalar GridScenario.node[14].appl 	receivedWSMs 	1271
scalar GridScenario.node[14].appl 	generatedBSMs 	0
scalar GridScenario.node[14].appl 	receivedBSMs 	0
scalar GridScenario.node[14].appl 	generatedWSAs 	0
scalar GridScenario.node[14].appl 	receivedWSAs 	0
scalar GridScenario.node[14].appl 	numInfectedSignal:count 	0
attr source  numInfectedSignal
attr title  "numInfected, count"
scalar GridScenario.node[14].appl 	numInfectedSignal:sum 	0
attr source  numInfectedSignal
attr title  "numInfected, sum"
scalar GridScenario.node[14].nic.phy80211p 	busyTime 	0.0031206615844413
scalar GridScenario.node[14].nic.phy80211p 	ncollisions 	0
scalar GridScenario.node[14].nic.mac1609_4 	ReceivedUnicastPackets 	0
scalar GridScenario.node[14].nic.mac1609_4 	ReceivedBroadcasts 	1271
scalar GridScenario.node[14].nic.mac1609_4 	SentPackets 	54
scalar GridScenario.node[14].nic.mac1609_4 	SNIRLostPackets 	1
scalar GridScenario.node[14].nic.mac1609_4 	RXTXLostPackets 	0
scalar GridScenario.node[14].nic.mac1609_4 	TotalLostPackets 	1
scalar GridScenario.node[14].nic.mac1609_4 	DroppedPacketsInMac 	0
scalar GridScenario.node[14].nic.mac1609_4 	TooLittleTime 	0
scalar GridScenario.node[14].nic.mac1609_4 	TimesIntoBackoff 	54
scalar GridScenario.node[14].nic.mac1609_4 	SlotsBackoff 	85
scalar GridScenario.node[14].nic.mac1609_4 	NumInternalContention 	0
scalar GridScenario.node[14].nic.mac1609_4 	totalBusyTime 	0.307454
scalar GridScenario.node[14].veinsmobility 	startTime 	29
scalar GridScenario.node[14].veinsmobility 	totalTime 	94
scalar GridScenario.node[14].veinsmobility 	stopTime 	123.5645633193
scalar GridScenario.node[14].veinsmobility 	minSpeed 	3.2891033933448
scalar GridScenario.node[14].veinsmobility 	maxSpeed 	13.899989534566
scalar GridScenario.node[14].veinsmobility 	totalDistance 	943.15590561869
scalar GridScenario.node[14].veinsmobility 	totalCO2Emission 	311.85888473839
scalar GridScenario.node[21].appl 	generatedWSMs 	49
scalar GridScenario.node[21].appl 	receivedWSMs 	957
scalar GridScenario.node[21].appl 	generatedBSMs 	0
scalar GridScenario.node[21].appl 	receivedBSMs 	0
scalar GridScenario.node[21].appl 	generatedWSAs 	0
scalar GridScenario.node[21].appl 	receivedWSAs 	0
scalar GridScenario.node[21].appl 	numInfectedSignal:count 	1
attr source  numInfectedSignal
attr title  "numInfected, count"
scalar GridScenario.node[21].appl 	numInfectedSignal:sum 	2
attr source  numInfectedSignal
attr title  "numInfected, sum"
scalar GridScenario.node[21].nic.phy80211p 	busyTime 	0.0027558518392269
scalar GridScenario.node[21].nic.phy80211p 	ncollisions 	0
scalar GridScenario.node[21].nic.mac1609_4 	ReceivedUnicastPackets 	0
scalar GridScenario.node[21].nic.mac1609_4 	ReceivedBroadcasts 	957
scalar GridScenario.node[21].nic.mac1609_4 	SentPackets 	49
scalar GridScenario.node[21].nic.mac1609_4 	SNIRLostPackets 	0
scalar GridScenario.node[21].nic.mac1609_4 	RXTXLostPackets 	0
scalar GridScenario.node[21].nic.mac1609_4 	TotalLostPackets 	0
scalar GridScenario.node[21].nic.mac1609_4 	DroppedPacketsInMac 	0
scalar GridScenario.node[21].nic.mac1609_4 	TooLittleTime 	0
scalar GridScenario.node[21].nic.mac1609_4 	TimesIntoBackoff 	49
scalar GridScenario.node[21].nic.mac1609_4 	SlotsBackoff 	73
scalar GridScenario.node[21].nic.mac1609_4 	NumInternalContention 	0
scalar GridScenario.node[21].nic.mac1609_4 	totalBusyTime 	0.233441
scalar GridScenario.node[21].veinsmobility 	startTime 	43
scalar GridScenario.node[21].veinsmobility 	totalTime 	80
scalar GridScenario.node[21].veinsmobility 	stopTime 	123.5645633193
scalar GridScenario.node[21].veinsmobility 	minSpeed 	3.3974958813539
scalar GridScenario.node[21].veinsmobility 	maxSpeed 	13.899789158722
scalar GridScenario.node[21].veinsmobility 	totalDistance 	837.94765926923
scalar GridScenario.node[21].veinsmobility 	totalCO2Emission 	263.41439116863
scalar GridScenario.node[23].appl 	generatedWSMs 	47
scalar GridScenario.node[23].appl 	receivedWSMs 	1012
scalar GridScenario.node[23].appl 	generatedBSMs 	0
scalar GridScenario.node[23].appl 	receivedBSMs 	0
scalar GridScenario.node[23].appl 	generatedWSAs 	0
scalar GridScenario.node[23].appl 	receivedWSAs 	0
scalar GridScenario.node[23].appl 	numInfectedSignal:count 	1
attr source  numInfectedSignal
attr title  "numInfected, count"
scalar GridScenario.node[23].appl 	numInfectedSignal:sum 	3
attr source  numInfectedSignal
attr title  "numInfected, sum"
scalar GridScenario.node[23].nic.phy80211p 	busyTime 	0.0030664838904765
scalar GridScenario.node[23].nic.phy80211p 	ncollisions 	0
scalar GridScenario.node[23].nic.mac1609_4 	ReceivedUnicastPackets 	0
scalar GridScenario.node[23].nic.mac1609_4 	ReceivedBroadcasts 	1012
scalar GridScenario.node[23].nic.mac1609_4 	SentPackets 	47
scalar GridScenario.node[23].nic.mac1609_4 	SNIRLostPackets 	0
scalar GridScenario.node[23].nic.mac1609_4 	RXTXLostPackets 	0
scalar GridScenario.node[23].nic.mac1609_4 	TotalLostPackets 	0
scalar GridScenario.node[23].nic.mac1609_4 	DroppedPacketsInMac 	0
scalar GridScenario.node[23].nic.mac1609_4 	TooLittleTime 	0
scalar GridScenario.node[23].nic.mac1609_4 	TimesIntoBackoff 	47
scalar GridScenario.node[23].nic.mac1609_4 	SlotsBackoff 	78
scalar GridScenario.node[23].nic.mac1609_4 	NumInternalContention 	0
scalar GridScenario.node[23].nic.mac1609_4 	totalBusyTime 	0.245735
scalar GridScenario.node[23].veinsmobility 	startTime 	47
scalar GridScenario.node[23].veinsmobility 	totalTime 	76
scalar GridScenario.node[23].veinsmobility 	stopTime 	123.5645633193
scalar GridScenario.node[23].veinsmobility 	minSpeed 	3.3029848526917
scalar GridScenario.node[23].veinsmobility 	maxSpeed 	13.899918734474
scalar GridScenario.node[23].veinsmobility 	totalDistance 	742.42422619838
scalar GridScenario.node[23].veinsmobility 	totalCO2Emission 	265.88408562466
scalar GridScenario.node[24].appl 	generatedWSMs 	47
scalar GridScenario.node[24].appl 	receivedWSMs 	979
scalar GridScenario.node[24].appl 	generatedBSMs 	0
scalar GridScenario.node[24].appl 	receivedBSMs 	0
scalar GridScenario.node[24].appl 	generatedWSAs 	0
scalar GridScenario.node[24].appl 	receivedWSAs 	0
scalar GridScenario.node[24].appl 	numInfectedSignal:count 	1
attr source  numInfectedSignal
attr title  "numInfected, count"
scalar GridScenario.node[24].appl 	numInfectedSignal:sum 	7
attr source  numInfectedSignal
attr title  "numInfected, sum"
scalar GridScenario.node[24].nic.phy80211p 	busyTime 	0.0030460582063278
scalar GridScenario.node[24].nic.phy80211p 	ncollisions 	0
scalar GridScenario.node[24].nic.mac1609_4 	ReceivedUnicastPackets 	0
scalar GridScenario.node[24].nic.mac1609_4 	ReceivedBroadcasts 	979
scalar GridScenario.node[24].nic.mac1609_4 	SentPackets 	47
scalar GridScenario.node[24].nic.mac1609_4 	SNIRLostPackets 	0
scalar GridScenario.node[24].nic.mac1609_4 	RXTXLostPackets 	0
scalar GridScenario.node[24].nic.mac1609_4 	TotalLostPackets 	0
scalar GridScenario.node[24].nic.mac1609_4 	DroppedPacketsInMac 	0
scalar GridScenario.node[24].nic.mac1609_4 	TooLittleTime 	0
scalar GridScenario.node[24].nic.mac1609_4 	TimesIntoBackoff 	47
scalar GridScenario.node[24].nic.mac1609_4 	SlotsBackoff 	71
scalar GridScenario.node[24].nic.mac1609_4 	NumInternalContention 	0
scalar GridScenario.node[24].nic.mac1609_4 	totalBusyTime 	0.238079
scalar GridScenario.node[24].veinsmobility 	startTime 	49
scalar GridScenario.node[24].veinsmobility 	totalTime 	74
scalar GridScenario.node[24].veinsmobility 	stopTime 	123.5645633193
scalar GridScenario.node[24].veinsmobility 	minSpeed 	0.94789845970952
scalar GridScenario.node[24].veinsmobility 	maxSpeed 	13.899303366262
scalar GridScenario.node[24].veinsmobility 	totalDistance 	665.36151138302
scalar GridScenario.node[24].veinsmobility 	totalCO2Emission 	261.09872311802
scalar GridScenario.node[26].appl 	generatedWSMs 	46
scalar GridScenario.node[26].appl 	receivedWSMs 	830
scalar GridScenario.node[26].appl 	generatedBSMs 	0
scalar GridScenario.node[26].appl 	receivedBSMs 	0
scalar GridScenario.node[26].appl 	generatedWSAs 	0
scalar GridScenario.node[26].appl 	receivedWSAs 	0
scalar GridScenario.node[26].appl 	numInfectedSignal:count 	1
attr source  numInfectedSignal
attr title  "numInfected, count"
scalar GridScenario.node[26].appl 	numInfectedSignal:sum 	7
attr source  numInfectedSignal
attr title  "numInfected, sum"
scalar GridScenario.node[26].nic.phy80211p 	busyTime 	0.0027288484607873
scalar GridScenario.node[26].nic.phy80211p 	ncollisions 	0
scalar GridScenario.node[26].nic.mac1609_4 	ReceivedUnicastPackets 	0
scalar GridScenario.node[26].nic.mac1609_4 	ReceivedBroadcasts 	830
scalar GridScenario.node[26].nic.mac1609_4 	SentPackets 	46
scalar GridScenario.node[26].nic.mac1609_4 	SNIRLostPackets 	0
scalar GridScenario.node[26].nic.mac1609_4 	RXTXLostPackets 	0
scalar GridScenario.node[26].nic.mac1609_4 	TotalLostPackets 	0
scalar GridScenario.node[26].nic.mac1609_4 	DroppedPacketsInMac 	0
scalar GridScenario.node[26].nic.mac1609_4 	TooLittleTime 	0
scalar GridScenario.node[26].nic.mac1609_4 	TimesIntoBackoff 	46
scalar GridScenario.node[26].nic.mac1609_4 	SlotsBackoff 	66
scalar GridScenario.node[26].nic.mac1609_4 	NumInternalContention 	0
scalar GridScenario.node[26].nic.mac1609_4 	totalBusyTime 	0.203278
scalar GridScenario.node[26].veinsmobility 	startTime 	53
scalar GridScenario.node[26].veinsmobility 	totalTime 	70
scalar GridScenario.node[26].veinsmobility 	stopTime 	123.5645633193
scalar GridScenario.node[26].veinsmobility 	minSpeed 	3.9707608540721
scalar GridScenario.node[26].veinsmobility 	maxSpeed 	13.899926152083
scalar GridScenario.node[26].veinsmobility 	totalDistance 	721.6882208283
scalar GridScenario.node[26].veinsmobility 	totalCO2Emission 	217.8319401427
scalar GridScenario.node[27].appl 	generatedWSMs 	45
scalar GridScenario.node[27].appl 	receivedWSMs 	892
scalar GridScenario.node[27].appl 	generatedBSMs 	0
scalar GridScenario.node[27].appl 	receivedBSMs 	0
scalar GridScenario.node[27].appl 	generatedWSAs 	0
scalar GridScenario.node[27].appl 	receivedWSAs 	0
scalar GridScenario.node[27].appl 	numInfectedSignal:count 	1
attr source  numInfectedSignal
attr title  "numInfected, count"
scalar GridScenario.node[27].appl 	numInfectedSignal:sum 	8
attr source  numInfectedSignal
attr title  "numInfected, sum"
scalar GridScenario.node[27].nic.phy80211p 	busyTime 	0.0030182355138219
scalar GridScenario.node[27].nic.phy80211p 	ncollisions 	0
scalar GridScenario.node[27].nic.mac1609_4 	ReceivedUnicastPackets 	0
scalar GridScenario.node[27].nic.mac1609_4 	ReceivedBroadcasts 	892
scalar GridScenario.node[27].nic.mac1609_4 	SentPackets 	45
scalar GridScenario.node[27].nic.mac1609_4 	SNIRLostPackets 	0
scalar GridScenario.node[27].nic.mac1609_4 	RXTXLostPackets 	0
scalar GridScenario.node[27].nic.mac1609_4 	TotalLostPackets 	0
scalar GridScenario.node[27].nic.mac1609_4 	DroppedPacketsInMac 	0
scalar GridScenario.node[27].nic.mac1609_4 	TooLittleTime 	0
scalar GridScenario.node[27].nic.mac1609_4 	TimesIntoBackoff 	45
scalar GridScenario.node[27].nic.mac1609_4 	SlotsBackoff 	60
scalar GridScenario.node[27].nic.mac1609_4 	NumInternalContention 	0
scalar GridScenario.node[27].nic.mac1609_4 	totalBusyTime 	0.217429
scalar GridScenario.node[27].veinsmobility 	startTime 	55
scalar GridScenario.node[27].veinsmobility 	totalTime 	68
scalar GridScenario.node[27].veinsmobility 	stopTime 	123.5645633193
scalar GridScenario.node[27].veinsmobility 	minSpeed 	4.109881873797
scalar GridScenario.node[27].veinsmobility 	maxSpeed 	13.899828117567
scalar GridScenario.node[27].veinsmobility 	totalDistance 	767.52288420271
scalar GridScenario.node[27].veinsmobility 	totalCO2Emission 	206.16664345383
scalar GridScenario.node[28].appl 	generatedWSMs 	44
scalar GridScenario.node[28].appl 	receivedWSMs 	1110
scalar GridScenario.node[28].appl 	generatedBSMs 	0
scalar GridScenario.node[28].appl 	receivedBSMs 	0
scalar GridScenario.node[28].appl 	generatedWSAs 	0
scalar GridScenario.node[28].appl 	receivedWSAs 	0
scalar GridScenario.node[28].appl 	numInfectedSignal:count 	1
attr source  numInfectedSignal
attr title  "numInfected, count"
scalar GridScenario.node[28].appl 	numInfectedSignal:sum 	8
attr source  numInfectedSignal
attr title  "numInfected, sum"
scalar GridScenario.node[28].nic.phy80211p 	busyTime 	0.003868725146813
scalar GridScenario.node[28].nic.phy80211p 	ncollisions 	0
scalar GridScenario.node[28].nic.mac1609_4 	ReceivedUnicastPackets 	0
scalar GridScenario.node[28].nic.mac1609_4 	ReceivedBroadcasts 	1110
scalar GridScenario.node[28].nic.mac1609_4 	SentPackets 	44
scalar GridScenario.node[28].nic.mac1609_4 	SNIRLostPackets 	0
scalar GridScenario.node[28].nic.mac1609_4 	RXTXLostPackets 	0
scalar GridScenario.node[28].nic.mac1609_4 	TotalLostPackets 	0
scalar GridScenario.node[28].nic.mac1609_4 	DroppedPacketsInMac 	0
scalar GridScenario.node[28].nic.mac1609_4 	TooLittleTime 	0
scalar GridScenario.node[28].nic.mac1609_4 	TimesIntoBackoff 	44
scalar GridScenario.node[28].nic.mac1609_4 	SlotsBackoff 	63
scalar GridScenario.node[28].nic.mac1609_4 	NumInternalContention 	0
scalar GridScenario.node[28].nic.mac1609_4 	totalBusyTime 	0.267772
scalar GridScenario.node[28].veinsmobility 	startTime 	57
scalar GridScenario.node[28].veinsmobility 	totalTime 	66
scalar GridScenario.node[28].veinsmobility 	stopTime 	123.5645633193
scalar GridScenario.node[28].veinsmobility 	minSpeed 	0
scalar GridScenario.node[28].veinsmobility 	maxSpeed 	13.898512039289
scalar GridScenario.node[28].veinsmobility 	totalDistance 	570.65198864486
scalar GridScenario.node[28].veinsmobility 	totalCO2Emission 	207.81554714232
scalar GridScenario.node[29].appl 	generatedWSMs 	42
scalar GridScenario.node[29].appl 	receivedWSMs 	1002
scalar GridScenario.node[29].appl 	generatedBSMs 	0
scalar GridScenario.node[29].appl 	receivedBSMs 	0
scalar GridScenario.node[29].appl 	generatedWSAs 	0
scalar GridScenario.node[29].appl 	receivedWSAs 	0
scalar GridScenario.node[29].appl 	numInfectedSignal:count 	1
attr source  numInfectedSignal
attr title  "numInfected, count"
scalar GridScenario.node[29].appl 	numInfectedSignal:sum 	10
attr source  numInfectedSignal
attr title  "numInfected, sum"
scalar GridScenario.node[29].nic.phy80211p 	busyTime 	0.0036040823020706
scalar GridScenario.node[29].nic.phy80211p 	ncollisions 	0
scalar GridScenario.node[29].nic.mac1609_4 	ReceivedUnicastPackets 	0
scalar GridScenario.node[29].nic.mac1609_4 	ReceivedBroadcasts 	1002
scalar GridScenario.node[29].nic.mac1609_4 	SentPackets 	42
scalar GridScenario.node[29].nic.mac1609_4 	SNIRLostPackets 	0
scalar GridScenario.node[29].nic.mac1609_4 	RXTXLostPackets 	0
scalar GridScenario.node[29].nic.mac1609_4 	TotalLostPackets 	0
scalar GridScenario.node[29].nic.mac1609_4 	DroppedPacketsInMac 	0
scalar GridScenario.node[29].nic.mac1609_4 	TooLittleTime 	0
scalar GridScenario.node[29].nic.mac1609_4 	TimesIntoBackoff 	42
scalar GridScenario.node[29].nic.mac1609_4 	SlotsBackoff 	77
scalar GridScenario.node[29].nic.mac1609_4 	NumInternalContention 	0
scalar GridScenario.node[29].nic.mac1609_4 	totalBusyTime 	0.24225
scalar GridScenario.node[29].veinsmobility 	startTime 	59
scalar GridScenario.node[29].veinsmobility 	totalTime 	64
scalar GridScenario.node[29].veinsmobility 	stopTime 	123.5645633193
scalar GridScenario.node[29].veinsmobility 	minSpeed 	0.092530502380458
scalar GridScenario.node[29].veinsmobility 	maxSpeed 	13.744488374462
scalar GridScenario.node[29].veinsmobility 	totalDistance 	490.20791807555
scalar GridScenario.node[29].veinsmobility 	totalCO2Emission 	213.28776652141
scalar GridScenario.node[30].appl 	generatedWSMs 	42
scalar GridScenario.node[30].appl 	receivedWSMs 	583
scalar GridScenario.node[30].appl 	generatedBSMs 	0
scalar GridScenario.node[30].appl 	receivedBSMs 	0
scalar GridScenario.node[30].appl 	generatedWSAs 	0
scalar GridScenario.node[30].appl 	receivedWSAs 	0
scalar GridScenario.node[30].appl 	numInfectedSignal:count 	1
attr source  numInfectedSignal
attr title  "numInfected, count"
scalar GridScenario.node[30].appl 	numInfectedSignal:sum 	12
attr source  numInfectedSignal
attr title  "numInfected, sum"
scalar GridScenario.node[30].nic.phy80211p 	busyTime 	0.0021618627674218
scalar GridScenario.node[30].nic.phy80211p 	ncollisions 	0
scalar GridScenario.node[30].nic.mac1609_4 	ReceivedUnicastPackets 	0
scalar GridScenario.node[30].nic.mac1609_4 	ReceivedBroadcasts 	583
scalar GridScenario.node[30].nic.mac1609_4 	SentPackets 	42
scalar GridScenario.node[30].nic.mac1609_4 	SNIRLostPackets 	0
scalar GridScenario.node[30].nic.mac1609_4 	RXTXLostPackets 	0
scalar GridScenario.node[30].nic.mac1609_4 	TotalLostPackets 	0
scalar GridScenario.node[30].nic.mac1609_4 	DroppedPacketsInMac 	0
scalar GridScenario.node[30].nic.mac1609_4 	TooLittleTime 	0
scalar GridScenario.node[30].nic.mac1609_4 	TimesIntoBackoff 	42
scalar GridScenario.node[30].nic.mac1609_4 	SlotsBackoff 	60
scalar GridScenario.node[30].nic.mac1609_4 	NumInternalContention 	0
scalar GridScenario.node[30].nic.mac1609_4 	totalBusyTime 	0.145042
scalar GridScenario.node[30].veinsmobility 	startTime 	61
scalar GridScenario.node[30].veinsmobility 	totalTime 	62
scalar GridScenario.node[30].veinsmobility 	stopTime 	123.5645633193
scalar GridScenario.node[30].veinsmobility 	minSpeed 	3.5085479279496
scalar GridScenario.node[30].veinsmobility 	maxSpeed 	13.897030367423
scalar GridScenario.node[30].veinsmobility 	totalDistance 	518.18003039975
scalar GridScenario.node[30].veinsmobility 	totalCO2Emission 	222.06941532667
scalar GridScenario.node[31].appl 	generatedWSMs 	40
scalar GridScenario.node[31].appl 	receivedWSMs 	726
scalar GridScenario.node[31].appl 	generatedBSMs 	0
scalar GridScenario.node[31].appl 	receivedBSMs 	0
scalar GridScenario.node[31].appl 	generatedWSAs 	0
scalar GridScenario.node[31].appl 	receivedWSAs 	0
scalar GridScenario.node[31].appl 	numInfectedSignal:count 	1
attr source  numInfectedSignal
attr title  "numInfected, count"
scalar GridScenario.node[31].appl 	numInfectedSignal:sum 	12
attr source  numInfectedSignal
attr title  "numInfected, sum"
scalar GridScenario.node[31].nic.phy80211p 	busyTime 	0.0027810321872878
scalar GridScenario.node[31].nic.phy80211p 	ncollisions 	0
scalar GridScenario.node[31].nic.mac1609_4 	ReceivedUnicastPackets 	0
scalar GridScenario.node[31].nic.mac1609_4 	ReceivedBroadcasts 	726
scalar GridScenario.node[31].nic.mac1609_4 	SentPackets 	40
scalar GridScenario.node[31].nic.mac1609_4 	SNIRLostPackets 	0
scalar GridScenario.node[31].nic.mac1609_4 	RXTXLostPackets 	0
scalar GridScenario.node[31].nic.mac1609_4 	TotalLostPackets 	0
scalar GridScenario.node[31].nic.mac1609_4 	DroppedPacketsInMac 	0
scalar GridScenario.node[31].nic.mac1609_4 	TooLittleTime 	0
scalar GridScenario.node[31].nic.mac1609_4 	TimesIntoBackoff 	40
scalar GridScenario.node[31].nic.mac1609_4 	SlotsBackoff 	79
scalar GridScenario.node[31].nic.mac1609_4 	NumInternalContention 	0
scalar GridScenario.node[31].nic.mac1609_4 	totalBusyTime 	0.177752
scalar GridScenario.node[31].veinsmobility 	startTime 	63
scalar GridScenario.node[31].veinsmobility 	totalTime 	60
scalar GridScenario.node[31].veinsmobility 	stopTime 	123.5645633193
scalar GridScenario.node[31].veinsmobility 	minSpeed 	3.3960564092833
scalar GridScenario.node[31].veinsmobility 	maxSpeed 	13.89987898993
scalar GridScenario.node[31].veinsmobility 	totalDistance 	658.66292911807
scalar GridScenario.node[31].veinsmobility 	totalCO2Emission 	184.92927920357
scalar GridScenario.node[32].appl 	generatedWSMs 	38
scalar GridScenario.node[32].appl 	receivedWSMs 	983
scalar GridScenario.node[32].appl 	generatedBSMs 	0
scalar GridScenario.node[32].appl 	receivedBSMs 	0
scalar GridScenario.node[32].appl 	generatedWSAs 	0
scalar GridScenario.node[32].appl 	receivedWSAs 	0
scalar GridScenario.node[32].appl 	numInfectedSignal:count 	1
attr source  numInfectedSignal
attr title  "numInfected, count"
scalar GridScenario.node[32].appl 	numInfectedSignal:sum 	14
attr source  numInfectedSignal
attr title  "numInfected, sum"
scalar GridScenario.node[32].nic.phy80211p 	busyTime 	0.003894095457634
scalar GridScenario.node[32].nic.phy80211p 	ncollisions 	0
scalar GridScenario.node[32].nic.mac1609_4 	ReceivedUnicastPackets 	0
scalar GridScenario.node[32].nic.mac1609_4 	ReceivedBroadcasts 	983
scalar GridScenario.node[32].nic.mac1609_4 	SentPackets 	38
scalar GridScenario.node[32].nic.mac1609_4 	SNIRLostPackets 	0
scalar GridScenario.node[32].nic.mac1609_4 	RXTXLostPackets 	0
scalar GridScenario.node[32].nic.mac1609_4 	TotalLostPackets 	0
scalar GridScenario.node[32].nic.mac1609_4 	DroppedPacketsInMac 	0
scalar GridScenario.node[32].nic.mac1609_4 	TooLittleTime 	0
scalar GridScenario.node[32].nic.mac1609_4 	TimesIntoBackoff 	38
scalar GridScenario.node[32].nic.mac1609_4 	SlotsBackoff 	55
scalar GridScenario.node[32].nic.mac1609_4 	NumInternalContention 	0
scalar GridScenario.node[32].nic.mac1609_4 	totalBusyTime 	0.23691
scalar GridScenario.node[32].veinsmobility 	startTime 	65
scalar GridScenario.node[32].veinsmobility 	totalTime 	58
scalar GridScenario.node[32].veinsmobility 	stopTime 	123.5645633193
scalar GridScenario.node[32].veinsmobility 	minSpeed 	3.4756400314348
scalar GridScenario.node[32].veinsmobility 	maxSpeed 	13.89835020138
scalar GridScenario.node[32].veinsmobility 	totalDistance 	496.11637669733
scalar GridScenario.node[32].veinsmobility 	totalCO2Emission 	218.45739723097
scalar GridScenario.node[33].appl 	generatedWSMs 	38
scalar GridScenario.node[33].appl 	receivedWSMs 	1055
scalar GridScenario.node[33].appl 	generatedBSMs 	0
scalar GridScenario.node[33].appl 	receivedBSMs 	0
scalar GridScenario.node[33].appl 	generatedWSAs 	0
scalar GridScenario.node[33].appl 	receivedWSAs 	0
scalar GridScenario.node[33].appl 	numInfectedSignal:count 	1
attr source  numInfectedSignal
attr title  "numInfected, count"
scalar GridScenario.node[33].appl 	numInfectedSignal:sum 	14
attr source  numInfectedSignal
attr title  "numInfected, sum"
scalar GridScenario.node[33].nic.phy80211p 	busyTime 	0.0043270907726869
scalar GridScenario.node[33].nic.phy80211p 	ncollisions 	0
scalar GridScenario.node[33].nic.mac1609_4 	ReceivedUnicastPackets 	0
scalar GridScenario.node[33].nic.mac1609_4 	ReceivedBroadcasts 	1055
scalar GridScenario.node[33].nic.mac1609_4 	SentPackets 	38
scalar GridScenario.node[33].nic.mac1609_4 	SNIRLostPackets 	0
scalar GridScenario.node[33].nic.mac1609_4 	RXTXLostPackets 	0
scalar GridScenario.node[33].nic.mac1609_4 	TotalLostPackets 	0
scalar GridScenario.node[33].nic.mac1609_4 	DroppedPacketsInMac 	0
scalar GridScenario.node[33].nic.mac1609_4 	TooLittleTime 	0
scalar GridScenario.node[33].nic.mac1609_4 	TimesIntoBackoff 	38
scalar GridScenario.node[33].nic.mac1609_4 	SlotsBackoff 	58
scalar GridScenario.node[33].nic.mac1609_4 	NumInternalContention 	0
scalar GridScenario.node[33].nic.mac1609_4 	totalBusyTime 	0.253614
scalar GridScenario.node[33].veinsmobility 	startTime 	67
scalar GridScenario.node[33].veinsmobility 	totalTime 	56
scalar GridScenario.node[33].veinsmobility 	stopTime 	123.5645633193
scalar GridScenario.node[33].veinsmobility 	minSpeed 	3.2818855704404
scalar GridScenario.node[33].veinsmobility 	maxSpeed 	13.897726386397
scalar GridScenario.node[33].veinsmobility 	totalDistance 	551.74251201952
scalar GridScenario.node[33].veinsmobility 	totalCO2Emission 	188.28746157473
scalar GridScenario.node[35].appl 	generatedWSMs 	34
scalar GridScenario.node[35].appl 	receivedWSMs 	788
scalar GridScenario.node[35].appl 	generatedBSMs 	0
scalar GridScenario.node[35].appl 	receivedBSMs 	0
scalar GridScenario.node[35].appl 	generatedWSAs 	0
scalar GridScenario.node[35].appl 	receivedWSAs 	0
scalar GridScenario.node[35].appl 	numInfectedSignal:count 	1
attr source  numInfectedSignal
attr title  "numInfected, count"
scalar GridScenario.node[35].appl 	numInfectedSignal:sum 	17
attr source  numInfectedSignal
attr title  "numInfected, sum"
scalar GridScenario.node[35].nic.phy80211p 	busyTime 	0.003477932440711
scalar GridScenario.node[35].nic.phy80211p 	ncollisions 	0
scalar GridScenario.node[35].nic.mac1609_4 	ReceivedUnicastPackets 	0
scalar GridScenario.node[35].nic.mac1609_4 	ReceivedBroadcasts 	788
scalar GridScenario.node[35].nic.mac1609_4 	SentPackets 	34
scalar GridScenario.node[35].nic.mac1609_4 	SNIRLostPackets 	0
scalar GridScenario.node[35].nic.mac1609_4 	RXTXLostPackets 	0
scalar GridScenario.node[35].nic.mac1609_4 	TotalLostPackets 	0
scalar GridScenario.node[35].nic.mac1609_4 	DroppedPacketsInMac 	0
scalar GridScenario.node[35].nic.mac1609_4 	TooLittleTime 	0
scalar GridScenario.node[35].nic.mac1609_4 	TimesIntoBackoff 	34
scalar GridScenario.node[35].nic.mac1609_4 	SlotsBackoff 	53
scalar GridScenario.node[35].nic.mac1609_4 	NumInternalContention 	0
scalar GridScenario.node[35].nic.mac1609_4 	totalBusyTime 	0.190738
scalar GridScenario.node[35].veinsmobility 	startTime 	71
scalar GridScenario.node[35].veinsmobility 	totalTime 	52
scalar GridScenario.node[35].veinsmobility 	stopTime 	123.5645633193
scalar GridScenario.node[35].veinsmobility 	minSpeed 	0.42777568590828
scalar GridScenario.node[35].veinsmobility 	maxSpeed 	13.899220109143
scalar GridScenario.node[35].veinsmobility 	totalDistance 	477.64555492185
scalar GridScenario.node[35].veinsmobility 	totalCO2Emission 	158.27087615551
scalar GridScenario.node[37].appl 	generatedWSMs 	32
scalar GridScenario.node[37].appl 	receivedWSMs 	474
scalar GridScenario.node[37].appl 	generatedBSMs 	0
scalar GridScenario.node[37].appl 	receivedBSMs 	0
scalar GridScenario.node[37].appl 	generatedWSAs 	0
scalar GridScenario.node[37].appl 	receivedWSAs 	0
scalar GridScenario.node[37].appl 	numInfectedSignal:count 	1
attr source  numInfectedSignal
attr title  "numInfected, count"
scalar GridScenario.node[37].appl 	numInfectedSignal:sum 	18
attr source  numInfectedSignal
attr title  "numInfected, sum"
scalar GridScenario.node[37].nic.phy80211p 	busyTime 	0.0022643671122293
scalar GridScenario.node[37].nic.phy80211p 	ncollisions 	0
scalar GridScenario.node[37].nic.mac1609_4 	ReceivedUnicastPackets 	0
scalar GridScenario.node[37].nic.mac1609_4 	ReceivedBroadcasts 	474
scalar GridScenario.node[37].nic.mac1609_4 	SentPackets 	32
scalar GridScenario.node[37].nic.mac1609_4 	SNIRLostPackets 	0
scalar GridScenario.node[37].nic.mac1609_4 	RXTXLostPackets 	0
scalar GridScenario.node[37].nic.mac1609_4 	TotalLostPackets 	0
scalar GridScenario.node[37].nic.mac1609_4 	DroppedPacketsInMac 	0
scalar GridScenario.node[37].nic.mac1609_4 	TooLittleTime 	0
scalar GridScenario.node[37].nic.mac1609_4 	TimesIntoBackoff 	32
scalar GridScenario.node[37].nic.mac1609_4 	SlotsBackoff 	54
scalar GridScenario.node[37].nic.mac1609_4 	NumInternalContention 	0
scalar GridScenario.node[37].nic.mac1609_4 	totalBusyTime 	0.117424
scalar GridScenario.node[37].veinsmobility 	startTime 	75
scalar GridScenario.node[37].veinsmobility 	totalTime 	48
scalar GridScenario.node[37].veinsmobility 	stopTime 	123.5645633193
scalar GridScenario.node[37].veinsmobility 	minSpeed 	3.7437423381426
scalar GridScenario.node[37].veinsmobility 	maxSpeed 	13.898228904524
scalar GridScenario.node[37].veinsmobility 	totalDistance 	481.0939701623
scalar GridScenario.node[37].veinsmobility 	totalCO2Emission 	164.1800799917
scalar GridScenario.node[38].appl 	generatedWSMs 	30
scalar GridScenario.node[38].appl 	receivedWSMs 	363
scalar GridScenario.node[38].appl 	generatedBSMs 	0
scalar GridScenario.node[38].appl 	receivedBSMs 	0
scalar GridScenario.node[38].appl 	generatedWSAs 	0
scalar GridScenario.node[38].appl 	receivedWSAs 	0
scalar GridScenario.node[38].appl 	numInfectedSignal:count 	1
attr source  numInfectedSignal
attr title  "numInfected, count"
scalar GridScenario.node[38].appl 	numInfectedSignal:sum 	19
attr source  numInfectedSignal
attr title  "numInfected, sum"
scalar GridScenario.node[38].nic.phy80211p 	busyTime 	0.0018135679576962
scalar GridScenario.node[38].nic.phy80211p 	ncollisions 	0
scalar GridScenario.node[38].nic.mac1609_4 	ReceivedUnicastPackets 	0
scalar GridScenario.node[38].nic.mac1609_4 	ReceivedBroadcasts 	363
scalar GridScenario.node[38].nic.mac1609_4 	SentPackets 	30
scalar GridScenario.node[38].nic.mac1609_4 	SNIRLostPackets 	0
scalar GridScenario.node[38].nic.mac1609_4 	RXTXLostPackets 	0
scalar GridScenario.node[38].nic.mac1609_4 	TotalLostPackets 	0
scalar GridScenario.node[38].nic.mac1609_4 	DroppedPacketsInMac 	0
scalar GridScenario.node[38].nic.mac1609_4 	TooLittleTime 	0
scalar GridScenario.node[38].nic.mac1609_4 	TimesIntoBackoff 	30
scalar GridScenario.node[38].nic.mac1609_4 	SlotsBackoff 	46
scalar GridScenario.node[38].nic.mac1609_4 	NumInternalContention 	0
scalar GridScenario.node[38].nic.mac1609_4 	totalBusyTime 	0.091206
scalar GridScenario.node[38].veinsmobility 	startTime 	77
scalar GridScenario.node[38].veinsmobility 	totalTime 	46
scalar GridScenario.node[38].veinsmobility 	stopTime 	123.5645633193
scalar GridScenario.node[38].veinsmobility 	minSpeed 	3.4490295682511
scalar GridScenario.node[38].veinsmobility 	maxSpeed 	13.898603172746
scalar GridScenario.node[38].veinsmobility 	totalDistance 	464.3577169928
scalar GridScenario.node[38].veinsmobility 	totalCO2Emission 	149.74617146321
scalar GridScenario.node[39].appl 	generatedWSMs 	30
scalar GridScenario.node[39].appl 	receivedWSMs 	577
scalar GridScenario.node[39].appl 	generatedBSMs 	0
scalar GridScenario.node[39].appl 	receivedBSMs 	0
scalar GridScenario.node[39].appl 	generatedWSAs 	0
scalar GridScenario.node[39].appl 	receivedWSAs 	0
scalar GridScenario.node[39].appl 	numInfectedSignal:count 	1
attr source  numInfectedSignal
attr title  "numInfected, count"
scalar GridScenario.node[39].appl 	numInfectedSignal:sum 	19
attr source  numInfectedSignal
attr title  "numInfected, sum"
scalar GridScenario.node[39].nic.phy80211p 	busyTime 	0.0030038216472779
scalar GridScenario.node[39].nic.phy80211p 	ncollisions 	0
scalar GridScenario.node[39].nic.mac1609_4 	ReceivedUnicastPackets 	0
scalar GridScenario.node[39].nic.mac1609_4 	ReceivedBroadcasts 	577
scalar GridScenario.node[39].nic.mac1609_4 	SentPackets 	30
scalar GridScenario.node[39].nic.mac1609_4 	SNIRLostPackets 	0
scalar GridScenario.node[39].nic.mac1609_4 	RXTXLostPackets 	0
scalar GridScenario.node[39].nic.mac1609_4 	TotalLostPackets 	0
scalar GridScenario.node[39].nic.mac1609_4 	DroppedPacketsInMac 	0
scalar GridScenario.node[39].nic.mac1609_4 	TooLittleTime 	0
scalar GridScenario.node[39].nic.mac1609_4 	TimesIntoBackoff 	30
scalar GridScenario.node[39].nic.mac1609_4 	SlotsBackoff 	42
scalar GridScenario.node[39].nic.mac1609_4 	NumInternalContention 	0
scalar GridScenario.node[39].nic.mac1609_4 	totalBusyTime 	0.140854
scalar GridScenario.node[39].veinsmobility 	startTime 	79
scalar GridScenario.node[39].veinsmobility 	totalTime 	44
scalar GridScenario.node[39].veinsmobility 	stopTime 	123.5645633193
scalar GridScenario.node[39].veinsmobility 	minSpeed 	3.2809585046962
scalar GridScenario.node[39].veinsmobility 	maxSpeed 	13.899320526641
scalar GridScenario.node[39].veinsmobility 	totalDistance 	489.67483276044
scalar GridScenario.node[39].veinsmobility 	totalCO2Emission 	137.18548499614
scalar GridScenario.node[4].appl 	generatedWSMs 	53
scalar GridScenario.node[4].appl 	receivedWSMs 	1104
scalar GridScenario.node[4].appl 	generatedBSMs 	0
scalar GridScenario.node[4].appl 	receivedBSMs 	0
scalar GridScenario.node[4].appl 	generatedWSAs 	0
scalar GridScenario.node[4].appl 	receivedWSAs 	0
scalar GridScenario.node[4].appl 	numInfectedSignal:count 	0
attr source  numInfectedSignal
attr title  "numInfected, count"
scalar GridScenario.node[4].appl 	numInfectedSignal:sum 	0
attr source  numInfectedSignal
attr title  "numInfected, sum"
scalar GridScenario.node[4].nic.phy80211p 	busyTime 	0.0022356651357031
scalar GridScenario.node[4].nic.phy80211p 	ncollisions 	0
scalar GridScenario.node[4].nic.mac1609_4 	ReceivedUnicastPackets 	0
scalar GridScenario.node[4].nic.mac1609_4 	ReceivedBroadcasts 	1104
scalar GridScenario.node[4].nic.mac1609_4 	SentPackets 	53
scalar GridScenario.node[4].nic.mac1609_4 	SNIRLostPackets 	0
scalar GridScenario.node[4].nic.mac1609_4 	RXTXLostPackets 	0
scalar GridScenario.node[4].nic.mac1609_4 	TotalLostPackets 	0
scalar GridScenario.node[4].nic.mac1609_4 	DroppedPacketsInMac 	0
scalar GridScenario.node[4].nic.mac1609_4 	TooLittleTime 	0
scalar GridScenario.node[4].nic.mac1609_4 	TimesIntoBackoff 	53
scalar GridScenario.node[4].nic.mac1609_4 	SlotsBackoff 	95
scalar GridScenario.node[4].nic.mac1609_4 	NumInternalContention 	0
scalar GridScenario.node[4].nic.mac1609_4 	totalBusyTime 	0.268477
scalar GridScenario.node[4].veinsmobility 	startTime 	9
scalar GridScenario.node[4].veinsmobility 	totalTime 	114
scalar GridScenario.node[4].veinsmobility 	stopTime 	123.5645633193
scalar GridScenario.node[4].veinsmobility 	minSpeed 	3.2931946490413
scalar GridScenario.node[4].veinsmobility 	maxSpeed 	13.899928672982
scalar GridScenario.node[4].veinsmobility 	totalDistance 	1194.1358103886
scalar GridScenario.node[4].veinsmobility 	totalCO2Emission 	362.51297201238
scalar GridScenario.node[40].appl 	generatedWSMs 	28
scalar GridScenario.node[40].appl 	receivedWSMs 	467
scalar GridScenario.node[40].appl 	generatedBSMs 	0
scalar GridScenario.node[40].appl 	receivedBSMs 	0
scalar GridScenario.node[40].appl 	generatedWSAs 	0
scalar GridScenario.node[40].appl 	receivedWSAs 	0
scalar GridScenario.node[40].appl 	numInfectedSignal:count 	1
attr source  numInfectedSignal
attr title  "numInfected, count"
scalar GridScenario.node[40].appl 	numInfectedSignal:sum 	19
attr source  numInfectedSignal
attr title  "numInfected, sum"
scalar GridScenario.node[40].nic.phy80211p 	busyTime 	0.0025454037713779
scalar GridScenario.node[40].nic.phy80211p 	ncollisions 	0
scalar GridScenario.node[40].nic.mac1609_4 	ReceivedUnicastPackets 	0
scalar GridScenario.node[40].nic.mac1609_4 	ReceivedBroadcasts 	467
scalar GridScenario.node[40].nic.mac1609_4 	SentPackets 	28
scalar GridScenario.node[40].nic.mac1609_4 	SNIRLostPackets 	0
scalar GridScenario.node[40].nic.mac1609_4 	RXTXLostPackets 	0
scalar GridScenario.node[40].nic.mac1609_4 	TotalLostPackets 	0
scalar GridScenario.node[40].nic.mac1609_4 	DroppedPacketsInMac 	0
scalar GridScenario.node[40].nic.mac1609_4 	TooLittleTime 	0
scalar GridScenario.node[40].nic.mac1609_4 	TimesIntoBackoff 	28
scalar GridScenario.node[40].nic.mac1609_4 	SlotsBackoff 	44
scalar GridScenario.node[40].nic.mac1609_4 	NumInternalContention 	0
scalar GridScenario.node[40].nic.mac1609_4 	totalBusyTime 	0.114868
scalar GridScenario.node[40].veinsmobility 	startTime 	81
scalar GridScenario.node[40].veinsmobility 	totalTime 	42
scalar GridScenario.node[40].veinsmobility 	stopTime 	123.5645633193
scalar GridScenario.node[40].veinsmobility 	minSpeed 	3.4611972425926
scalar GridScenario.node[40].veinsmobility 	maxSpeed 	13.895016197271
scalar GridScenario.node[40].veinsmobility 	totalDistance 	402.36749552809
scalar GridScenario.node[40].veinsmobility 	totalCO2Emission 	125.41012670761
scalar GridScenario.node[41].appl 	generatedWSMs 	26
scalar GridScenario.node[41].appl 	receivedWSMs 	768
scalar GridScenario.node[41].appl 	generatedBSMs 	0
scalar GridScenario.node[41].appl 	receivedBSMs 	0
scalar GridScenario.node[41].appl 	generatedWSAs 	0
scalar GridScenario.node[41].appl 	receivedWSAs 	0
scalar GridScenario.node[41].appl 	numInfectedSignal:count 	1
attr source  numInfectedSignal
attr title  "numInfected, count"
scalar GridScenario.node[41].appl 	numInfectedSignal:sum 	20
attr source  numInfectedSignal
attr title  "numInfected, sum"
scalar GridScenario.node[41].nic.phy80211p 	busyTime 	0.0043924052281176
scalar GridScenario.node[41].nic.phy80211p 	ncollisions 	0
scalar GridScenario.node[41].nic.mac1609_4 	ReceivedUnicastPackets 	0
scalar GridScenario.node[41].nic.mac1609_4 	ReceivedBroadcasts 	768
scalar GridScenario.node[41].nic.mac1609_4 	SentPackets 	26
scalar GridScenario.node[41].nic.mac1609_4 	SNIRLostPackets 	0
scalar GridScenario.node[41].nic.mac1609_4 	RXTXLostPackets 	0
scalar GridScenario.node[41].nic.mac1609_4 	TotalLostPackets 	0
scalar GridScenario.node[41].nic.mac1609_4 	DroppedPacketsInMac 	0
scalar GridScenario.node[41].nic.mac1609_4 	TooLittleTime 	0
scalar GridScenario.node[41].nic.mac1609_4 	TimesIntoBackoff 	26
scalar GridScenario.node[41].nic.mac1609_4 	SlotsBackoff 	43
scalar GridScenario.node[41].nic.mac1609_4 	NumInternalContention 	0
scalar GridScenario.node[41].nic.mac1609_4 	totalBusyTime 	0.184234
scalar GridScenario.node[41].veinsmobility 	startTime 	83
scalar GridScenario.node[41].veinsmobility 	totalTime 	40
scalar GridScenario.node[41].veinsmobility 	stopTime 	123.5645633193
scalar GridScenario.node[41].veinsmobility 	minSpeed 	3.9489616067208
scalar GridScenario.node[41].veinsmobility 	maxSpeed 	13.895948560287
scalar GridScenario.node[41].veinsmobility 	totalDistance 	391.21392174833
scalar GridScenario.node[41].veinsmobility 	totalCO2Emission 	127.47088203773
scalar GridScenario.node[42].appl 	generatedWSMs 	25
scalar GridScenario.node[42].appl 	receivedWSMs 	465
scalar GridScenario.node[42].appl 	generatedBSMs 	0
scalar GridScenario.node[42].appl 	receivedBSMs 	0
scalar GridScenario.node[42].appl 	generatedWSAs 	0
scalar GridScenario.node[42].appl 	receivedWSAs 	0
scalar GridScenario.node[42].appl 	numInfectedSignal:count 	1
attr source  numInfectedSignal
attr title  "numInfected, count"
scalar GridScenario.node[42].appl 	numInfectedSignal:sum 	21
attr source  numInfectedSignal
attr title  "numInfected, sum"
scalar GridScenario.node[42].nic.phy80211p 	busyTime 	0.0027973867902197
scalar GridScenario.node[42].nic.phy80211p 	ncollisions 	0
scalar GridScenario.node[42].nic.mac1609_4 	ReceivedUnicastPackets 	0
scalar GridScenario.node[42].nic.mac1609_4 	ReceivedBroadcasts 	465
scalar GridScenario.node[42].nic.mac1609_4 	SentPackets 	25
scalar GridScenario.node[42].nic.mac1609_4 	SNIRLostPackets 	0
scalar GridScenario.node[42].nic.mac1609_4 	RXTXLostPackets 	0
scalar GridScenario.node[42].nic.mac1609_4 	TotalLostPackets 	0
scalar GridScenario.node[42].nic.mac1609_4 	DroppedPacketsInMac 	0
scalar GridScenario.node[42].nic.mac1609_4 	TooLittleTime 	0
scalar GridScenario.node[42].nic.mac1609_4 	TimesIntoBackoff 	25
scalar GridScenario.node[42].nic.mac1609_4 	SlotsBackoff 	40
scalar GridScenario.node[42].nic.mac1609_4 	NumInternalContention 	0
scalar GridScenario.node[42].nic.mac1609_4 	totalBusyTime 	0.113705
scalar GridScenario.node[42].veinsmobility 	startTime 	85
scalar GridScenario.node[42].veinsmobility 	totalTime 	38
scalar GridScenario.node[42].veinsmobility 	stopTime 	123.5645633193
scalar GridScenario.node[42].veinsmobility 	minSpeed 	3.7730063820104
scalar GridScenario.node[42].veinsmobility 	maxSpeed 	13.898435592317
scalar GridScenario.node[42].veinsmobility 	totalDistance 	402.94080938386
scalar GridScenario.node[42].veinsmobility 	totalCO2Emission 	124.20147713596
scalar GridScenario.node[43].appl 	generatedWSMs 	24
scalar GridScenario.node[43].appl 	receivedWSMs 	480
scalar GridScenario.node[43].appl 	generatedBSMs 	0
scalar GridScenario.node[43].appl 	receivedBSMs 	0
scalar GridScenario.node[43].appl 	generatedWSAs 	0
[...]
scalar GridScenario.node[53].nic.mac1609_4 	TimesIntoBackoff 	10
scalar GridScenario.node[53].nic.mac1609_4 	SlotsBackoff 	17
scalar GridScenario.node[53].nic.mac1609_4 	NumInternalContention 	0
scalar GridScenario.node[53].nic.mac1609_4 	totalBusyTime 	0.067522
scalar GridScenario.node[53].veinsmobility 	startTime 	107
scalar GridScenario.node[53].veinsmobility 	totalTime 	16
scalar GridScenario.node[53].veinsmobility 	stopTime 	123.5645633193
scalar GridScenario.node[53].veinsmobility 	minSpeed 	4.0702526798075
scalar GridScenario.node[53].veinsmobility 	maxSpeed 	13.276372583538
scalar GridScenario.node[53].veinsmobility 	totalDistance 	142.34974745499
scalar GridScenario.node[53].veinsmobility 	totalCO2Emission 	61.85856477768
scalar GridScenario.node[54].appl 	generatedWSMs 	9
scalar GridScenario.node[54].appl 	receivedWSMs 	265
scalar GridScenario.node[54].appl 	generatedBSMs 	0
scalar GridScenario.node[54].appl 	receivedBSMs 	0
scalar GridScenario.node[54].appl 	generatedWSAs 	0
scalar GridScenario.node[54].appl 	receivedWSAs 	0
scalar GridScenario.node[54].appl 	numInfectedSignal:count 	1
attr source  numInfectedSignal
attr title  "numInfected, count"
scalar GridScenario.node[54].appl 	numInfectedSignal:sum 	26
attr source  numInfectedSignal
attr title  "numInfected, sum"
scalar GridScenario.node[54].nic.phy80211p 	busyTime 	0.0042212044846227
scalar GridScenario.node[54].nic.phy80211p 	ncollisions 	0
scalar GridScenario.node[54].nic.mac1609_4 	ReceivedUnicastPackets 	0
scalar GridScenario.node[54].nic.mac1609_4 	ReceivedBroadcasts 	265
scalar GridScenario.node[54].nic.mac1609_4 	SentPackets 	9
scalar GridScenario.node[54].nic.mac1609_4 	SNIRLostPackets 	0
scalar GridScenario.node[54].nic.mac1609_4 	RXTXLostPackets 	0
scalar GridScenario.node[54].nic.mac1609_4 	TotalLostPackets 	0
scalar GridScenario.node[54].nic.mac1609_4 	DroppedPacketsInMac 	0
scalar GridScenario.node[54].nic.mac1609_4 	TooLittleTime 	0
scalar GridScenario.node[54].nic.mac1609_4 	TimesIntoBackoff 	9
scalar GridScenario.node[54].nic.mac1609_4 	SlotsBackoff 	9
scalar GridScenario.node[54].nic.mac1609_4 	NumInternalContention 	0
scalar GridScenario.node[54].nic.mac1609_4 	totalBusyTime 	0.063577
scalar GridScenario.node[54].veinsmobility 	startTime 	109
scalar GridScenario.node[54].veinsmobility 	totalTime 	14
scalar GridScenario.node[54].veinsmobility 	stopTime 	123.5645633193
scalar GridScenario.node[54].veinsmobility 	minSpeed 	4.2030013771618
scalar GridScenario.node[54].veinsmobility 	maxSpeed 	13.898820391028
scalar GridScenario.node[54].veinsmobility 	totalDistance 	161.26994614951
scalar GridScenario.node[54].veinsmobility 	totalCO2Emission 	48.173652494099
scalar GridScenario.node[55].appl 	generatedWSMs 	8
scalar GridScenario.node[55].appl 	receivedWSMs 	236
scalar GridScenario.node[55].appl 	generatedBSMs 	0
scalar GridScenario.node[55].appl 	receivedBSMs 	0
scalar GridScenario.node[55].appl 	generatedWSAs 	0
scalar GridScenario.node[55].appl 	receivedWSAs 	0
scalar GridScenario.node[55].appl 	numInfectedSignal:count 	1
attr source  numInfectedSignal
attr title  "numInfected, count"
scalar GridScenario.node[55].appl 	numInfectedSignal:sum 	26
attr source  numInfectedSignal
attr title  "numInfected, sum"
scalar GridScenario.node[55].nic.phy80211p 	busyTime 	0.0043576524395319
scalar GridScenario.node[55].nic.phy80211p 	ncollisions 	0
scalar GridScenario.node[55].nic.mac1609_4 	ReceivedUnicastPackets 	0
scalar GridScenario.node[55].nic.mac1609_4 	ReceivedBroadcasts 	236
scalar GridScenario.node[55].nic.mac1609_4 	SentPackets 	8
scalar GridScenario.node[55].nic.mac1609_4 	SNIRLostPackets 	0
scalar GridScenario.node[55].nic.mac1609_4 	RXTXLostPackets 	0
scalar GridScenario.node[55].nic.mac1609_4 	TotalLostPackets 	0
scalar GridScenario.node[55].nic.mac1609_4 	DroppedPacketsInMac 	0
scalar GridScenario.node[55].nic.mac1609_4 	TooLittleTime 	0
scalar GridScenario.node[55].nic.mac1609_4 	TimesIntoBackoff 	8
scalar GridScenario.node[55].nic.mac1609_4 	SlotsBackoff 	12
scalar GridScenario.node[55].nic.mac1609_4 	NumInternalContention 	0
scalar GridScenario.node[55].nic.mac1609_4 	totalBusyTime 	0.056616
scalar GridScenario.node[55].veinsmobility 	startTime 	111
scalar GridScenario.node[55].veinsmobility 	totalTime 	12
scalar GridScenario.node[55].veinsmobility 	stopTime 	123.5645633193
scalar GridScenario.node[55].veinsmobility 	minSpeed 	3.4320103514655
scalar GridScenario.node[55].veinsmobility 	maxSpeed 	13.430602764009
scalar GridScenario.node[55].veinsmobility 	totalDistance 	89.005662256932
scalar GridScenario.node[55].veinsmobility 	totalCO2Emission 	50.428886338086
scalar GridScenario.node[56].appl 	generatedWSMs 	6
scalar GridScenario.node[56].appl 	receivedWSMs 	239
scalar GridScenario.node[56].appl 	generatedBSMs 	0
scalar GridScenario.node[56].appl 	receivedBSMs 	0
scalar GridScenario.node[56].appl 	generatedWSAs 	0
scalar GridScenario.node[56].appl 	receivedWSAs 	0
scalar GridScenario.node[56].appl 	numInfectedSignal:count 	1
attr source  numInfectedSignal
attr title  "numInfected, count"
scalar GridScenario.node[56].appl 	numInfectedSignal:sum 	26
attr source  numInfectedSignal
attr title  "numInfected, sum"
scalar GridScenario.node[56].nic.phy80211p 	busyTime 	0.0052484895328049
scalar GridScenario.node[56].nic.phy80211p 	ncollisions 	0
scalar GridScenario.node[56].nic.mac1609_4 	ReceivedUnicastPackets 	0
scalar GridScenario.node[56].nic.mac1609_4 	ReceivedBroadcasts 	239
scalar GridScenario.node[56].nic.mac1609_4 	SentPackets 	6
scalar GridScenario.node[56].nic.mac1609_4 	SNIRLostPackets 	0
scalar GridScenario.node[56].nic.mac1609_4 	RXTXLostPackets 	0
scalar GridScenario.node[56].nic.mac1609_4 	TotalLostPackets 	0
scalar GridScenario.node[56].nic.mac1609_4 	DroppedPacketsInMac 	0
scalar GridScenario.node[56].nic.mac1609_4 	TooLittleTime 	0
scalar GridScenario.node[56].nic.mac1609_4 	TimesIntoBackoff 	6
scalar GridScenario.node[56].nic.mac1609_4 	SlotsBackoff 	8
scalar GridScenario.node[56].nic.mac1609_4 	NumInternalContention 	0
scalar GridScenario.node[56].nic.mac1609_4 	totalBusyTime 	0.056846
scalar GridScenario.node[56].veinsmobility 	startTime 	113
scalar GridScenario.node[56].veinsmobility 	totalTime 	10
scalar GridScenario.node[56].veinsmobility 	stopTime 	123.5645633193
scalar GridScenario.node[56].veinsmobility 	minSpeed 	3.4646421959457
scalar GridScenario.node[56].veinsmobility 	maxSpeed 	10.090811910405
scalar GridScenario.node[56].veinsmobility 	totalDistance 	65.629806353658
scalar GridScenario.node[56].veinsmobility 	totalCO2Emission 	34.637737504933
scalar GridScenario.node[57].appl 	generatedWSMs 	6
scalar GridScenario.node[57].appl 	receivedWSMs 	50
scalar GridScenario.node[57].appl 	generatedBSMs 	0
scalar GridScenario.node[57].appl 	receivedBSMs 	0
scalar GridScenario.node[57].appl 	generatedWSAs 	0
scalar GridScenario.node[57].appl 	receivedWSAs 	0
scalar GridScenario.node[57].appl 	numInfectedSignal:count 	1
attr source  numInfectedSignal
attr title  "numInfected, count"
scalar GridScenario.node[57].appl 	numInfectedSignal:sum 	26
attr source  numInfectedSignal
attr title  "numInfected, sum"
scalar GridScenario.node[57].nic.phy80211p 	busyTime 	0.0013544181492429
scalar GridScenario.node[57].nic.phy80211p 	ncollisions 	0
scalar GridScenario.node[57].nic.mac1609_4 	ReceivedUnicastPackets 	0
scalar GridScenario.node[57].nic.mac1609_4 	ReceivedBroadcasts 	50
scalar GridScenario.node[57].nic.mac1609_4 	SentPackets 	6
scalar GridScenario.node[57].nic.mac1609_4 	SNIRLostPackets 	0
scalar GridScenario.node[57].nic.mac1609_4 	RXTXLostPackets 	0
scalar GridScenario.node[57].nic.mac1609_4 	TotalLostPackets 	0
scalar GridScenario.node[57].nic.mac1609_4 	DroppedPacketsInMac 	0
scalar GridScenario.node[57].nic.mac1609_4 	TooLittleTime 	0
scalar GridScenario.node[57].nic.mac1609_4 	TimesIntoBackoff 	6
scalar GridScenario.node[57].nic.mac1609_4 	SlotsBackoff 	7
scalar GridScenario.node[57].nic.mac1609_4 	NumInternalContention 	0
scalar GridScenario.node[57].nic.mac1609_4 	totalBusyTime 	0.012998
scalar GridScenario.node[57].veinsmobility 	startTime 	115
scalar GridScenario.node[57].veinsmobility 	totalTime 	8
scalar GridScenario.node[57].veinsmobility 	stopTime 	123.5645633193
scalar GridScenario.node[57].veinsmobility 	minSpeed 	4.2341797971962
scalar GridScenario.node[57].veinsmobility 	maxSpeed 	13.893398627592
scalar GridScenario.node[57].veinsmobility 	totalDistance 	76.737699386239
scalar GridScenario.node[57].veinsmobility 	totalCO2Emission 	35.964045056043
scalar GridScenario.node[58].appl 	generatedWSMs 	4
scalar GridScenario.node[58].appl 	receivedWSMs 	125
scalar GridScenario.node[58].appl 	generatedBSMs 	0
scalar GridScenario.node[58].appl 	receivedBSMs 	0
scalar GridScenario.node[58].appl 	generatedWSAs 	0
scalar GridScenario.node[58].appl 	receivedWSAs 	0
scalar GridScenario.node[58].appl 	numInfectedSignal:count 	1
attr source  numInfectedSignal
attr title  "numInfected, count"
scalar GridScenario.node[58].appl 	numInfectedSignal:sum 	26
attr source  numInfectedSignal
attr title  "numInfected, sum"
scalar GridScenario.node[58].nic.phy80211p 	busyTime 	0.0044529999297984
scalar GridScenario.node[58].nic.phy80211p 	ncollisions 	0
scalar GridScenario.node[58].nic.mac1609_4 	ReceivedUnicastPackets 	0
scalar GridScenario.node[58].nic.mac1609_4 	ReceivedBroadcasts 	125
scalar GridScenario.node[58].nic.mac1609_4 	SentPackets 	4
scalar GridScenario.node[58].nic.mac1609_4 	SNIRLostPackets 	0
scalar GridScenario.node[58].nic.mac1609_4 	RXTXLostPackets 	0
scalar GridScenario.node[58].nic.mac1609_4 	TotalLostPackets 	0
scalar GridScenario.node[58].nic.mac1609_4 	DroppedPacketsInMac 	0
scalar GridScenario.node[58].nic.mac1609_4 	TooLittleTime 	0
scalar GridScenario.node[58].nic.mac1609_4 	TimesIntoBackoff 	4
scalar GridScenario.node[58].nic.mac1609_4 	SlotsBackoff 	9
scalar GridScenario.node[58].nic.mac1609_4 	NumInternalContention 	0
scalar GridScenario.node[58].nic.mac1609_4 	totalBusyTime 	0.029932
scalar GridScenario.node[58].veinsmobility 	startTime 	117
scalar GridScenario.node[58].veinsmobility 	totalTime 	6
scalar GridScenario.node[58].veinsmobility 	stopTime 	123.5645633193
scalar GridScenario.node[58].veinsmobility 	minSpeed 	4.2413022886796
scalar GridScenario.node[58].veinsmobility 	maxSpeed 	13.816674736743
scalar GridScenario.node[58].veinsmobility 	totalDistance 	49.9377455463
scalar GridScenario.node[58].veinsmobility 	totalCO2Emission 	31.565142042796
scalar GridScenario.node[59].appl 	generatedWSMs 	2
scalar GridScenario.node[59].appl 	receivedWSMs 	100
scalar GridScenario.node[59].appl 	generatedBSMs 	0
scalar GridScenario.node[59].appl 	receivedBSMs 	0
scalar GridScenario.node[59].appl 	generatedWSAs 	0
scalar GridScenario.node[59].appl 	receivedWSAs 	0
scalar GridScenario.node[59].appl 	numInfectedSignal:count 	1
attr source  numInfectedSignal
attr title  "numInfected, count"
scalar GridScenario.node[59].appl 	numInfectedSignal:sum 	26
attr source  numInfectedSignal
attr title  "numInfected, sum"
scalar GridScenario.node[59].nic.phy80211p 	busyTime 	0.0050826329655468
scalar GridScenario.node[59].nic.phy80211p 	ncollisions 	0
scalar GridScenario.node[59].nic.mac1609_4 	ReceivedUnicastPackets 	0
scalar GridScenario.node[59].nic.mac1609_4 	ReceivedBroadcasts 	100
scalar GridScenario.node[59].nic.mac1609_4 	SentPackets 	2
scalar GridScenario.node[59].nic.mac1609_4 	SNIRLostPackets 	0
scalar GridScenario.node[59].nic.mac1609_4 	RXTXLostPackets 	0
scalar GridScenario.node[59].nic.mac1609_4 	TotalLostPackets 	0
scalar GridScenario.node[59].nic.mac1609_4 	DroppedPacketsInMac 	0
scalar GridScenario.node[59].nic.mac1609_4 	TooLittleTime 	0
scalar GridScenario.node[59].nic.mac1609_4 	TimesIntoBackoff 	2
scalar GridScenario.node[59].nic.mac1609_4 	SlotsBackoff 	4
scalar GridScenario.node[59].nic.mac1609_4 	NumInternalContention 	0
scalar GridScenario.node[59].nic.mac1609_4 	totalBusyTime 	0.023666
scalar GridScenario.node[59].veinsmobility 	startTime 	119
scalar GridScenario.node[59].veinsmobility 	totalTime 	4
scalar GridScenario.node[59].veinsmobility 	stopTime 	123.5645633193
scalar GridScenario.node[59].veinsmobility 	minSpeed 	4.2821387736111
scalar GridScenario.node[59].veinsmobility 	maxSpeed 	10.14508389838
scalar GridScenario.node[59].veinsmobility 	totalDistance 	24.980980433232
scalar GridScenario.node[59].veinsmobility 	totalCO2Emission 	16.258059420297
scalar GridScenario.node[60].appl 	generatedWSMs 	2
scalar GridScenario.node[60].appl 	receivedWSMs 	26
scalar GridScenario.node[60].appl 	generatedBSMs 	0
scalar GridScenario.node[60].appl 	receivedBSMs 	0
scalar GridScenario.node[60].appl 	generatedWSAs 	0
scalar GridScenario.node[60].appl 	receivedWSAs 	0
scalar GridScenario.node[60].appl 	numInfectedSignal:count 	1
attr source  numInfectedSignal
attr title  "numInfected, count"
scalar GridScenario.node[60].appl 	numInfectedSignal:sum 	26
attr source  numInfectedSignal
attr title  "numInfected, sum"
scalar GridScenario.node[60].nic.phy80211p 	busyTime 	0.0023520573481673
scalar GridScenario.node[60].nic.phy80211p 	ncollisions 	0
scalar GridScenario.node[60].nic.mac1609_4 	ReceivedUnicastPackets 	0
scalar GridScenario.node[60].nic.mac1609_4 	ReceivedBroadcasts 	26
scalar GridScenario.node[60].nic.mac1609_4 	SentPackets 	2
scalar GridScenario.node[60].nic.mac1609_4 	SNIRLostPackets 	0
scalar GridScenario.node[60].nic.mac1609_4 	RXTXLostPackets 	0
scalar GridScenario.node[60].nic.mac1609_4 	TotalLostPackets 	0
scalar GridScenario.node[60].nic.mac1609_4 	DroppedPacketsInMac 	0
scalar GridScenario.node[60].nic.mac1609_4 	TooLittleTime 	0
scalar GridScenario.node[60].nic.mac1609_4 	TimesIntoBackoff 	2
scalar GridScenario.node[60].nic.mac1609_4 	SlotsBackoff 	1
scalar GridScenario.node[60].nic.mac1609_4 	NumInternalContention 	0
scalar GridScenario.node[60].nic.mac1609_4 	totalBusyTime 	0.006498
scalar GridScenario.node[60].veinsmobility 	startTime 	121
scalar GridScenario.node[60].veinsmobility 	totalTime 	2
scalar GridScenario.node[60].veinsmobility 	stopTime 	123.5645633193
scalar GridScenario.node[60].veinsmobility 	minSpeed 	4.9665607764621
scalar GridScenario.node[60].veinsmobility 	maxSpeed 	6.8641263508284
scalar GridScenario.node[60].veinsmobility 	totalDistance 	13.562715564935
scalar GridScenario.node[60].veinsmobility 	totalCO2Emission 	4.6100581679129
scalar GridScenario.node[61].appl 	generatedWSMs 	0
scalar GridScenario.node[61].appl 	receivedWSMs 	12
scalar GridScenario.node[61].appl 	generatedBSMs 	0
scalar GridScenario.node[61].appl 	receivedBSMs 	0
scalar GridScenario.node[61].appl 	generatedWSAs 	0
scalar GridScenario.node[61].appl 	receivedWSAs 	0
scalar GridScenario.node[61].appl 	numInfectedSignal:count 	1
attr source  numInfectedSignal
attr title  "numInfected, count"
scalar GridScenario.node[61].appl 	numInfectedSignal:sum 	26
attr source  numInfectedSignal
attr title  "numInfected, sum"
scalar GridScenario.node[61].nic.phy80211p 	busyTime 	0.0049312449194395
scalar GridScenario.node[61].nic.phy80211p 	ncollisions 	0
scalar GridScenario.node[61].nic.mac1609_4 	ReceivedUnicastPackets 	0
scalar GridScenario.node[61].nic.mac1609_4 	ReceivedBroadcasts 	12
scalar GridScenario.node[61].nic.mac1609_4 	SentPackets 	0
scalar GridScenario.node[61].nic.mac1609_4 	SNIRLostPackets 	0
scalar GridScenario.node[61].nic.mac1609_4 	RXTXLostPackets 	0
scalar GridScenario.node[61].nic.mac1609_4 	TotalLostPackets 	0
scalar GridScenario.node[61].nic.mac1609_4 	DroppedPacketsInMac 	0
scalar GridScenario.node[61].nic.mac1609_4 	TooLittleTime 	0
scalar GridScenario.node[61].nic.mac1609_4 	TimesIntoBackoff 	0
scalar GridScenario.node[61].nic.mac1609_4 	SlotsBackoff 	0
scalar GridScenario.node[61].nic.mac1609_4 	NumInternalContention 	0
scalar GridScenario.node[61].nic.mac1609_4 	totalBusyTime 	0.002784
scalar GridScenario.node[61].veinsmobility 	startTime 	123
scalar GridScenario.node[61].veinsmobility 	totalTime 	0
scalar GridScenario.node[61].veinsmobility 	stopTime 	123.5645633193
scalar GridScenario.node[61].veinsmobility 	totalDistance 	0
scalar GridScenario.node[61].veinsmobility 	totalCO2Emission 	0
scalar GridScenario.node[8].appl 	generatedWSMs 	56
scalar GridScenario.node[8].appl 	receivedWSMs 	1069
scalar GridScenario.node[8].appl 	generatedBSMs 	0
scalar GridScenario.node[8].appl 	receivedBSMs 	0
scalar GridScenario.node[8].appl 	generatedWSAs 	0
scalar GridScenario.node[8].appl 	receivedWSAs 	0
scalar GridScenario.node[8].appl 	numInfectedSignal:count 	0
attr source  numInfectedSignal
attr title  "numInfected, count"
scalar GridScenario.node[8].appl 	numInfectedSignal:sum 	0
attr source  numInfectedSignal
attr title  "numInfected, sum"
scalar GridScenario.node[8].nic.phy80211p 	busyTime 	0.0023294798220699
scalar GridScenario.node[8].nic.phy80211p 	ncollisions 	0
scalar GridScenario.node[8].nic.mac1609_4 	ReceivedUnicastPackets 	0
scalar GridScenario.node[8].nic.mac1609_4 	ReceivedBroadcasts 	1070
scalar GridScenario.node[8].nic.mac1609_4 	SentPackets 	56
scalar GridScenario.node[8].nic.mac1609_4 	SNIRLostPackets 	0
scalar GridScenario.node[8].nic.mac1609_4 	RXTXLostPackets 	0
scalar GridScenario.node[8].nic.mac1609_4 	TotalLostPackets 	0
scalar GridScenario.node[8].nic.mac1609_4 	DroppedPacketsInMac 	0
scalar GridScenario.node[8].nic.mac1609_4 	TooLittleTime 	0
scalar GridScenario.node[8].nic.mac1609_4 	TimesIntoBackoff 	56
scalar GridScenario.node[8].nic.mac1609_4 	SlotsBackoff 	84
scalar GridScenario.node[8].nic.mac1609_4 	NumInternalContention 	0
scalar GridScenario.node[8].nic.mac1609_4 	totalBusyTime 	0.261288
scalar GridScenario.node[8].veinsmobility 	startTime 	17
scalar GridScenario.node[8].veinsmobility 	totalTime 	106
scalar GridScenario.node[8].veinsmobility 	stopTime 	123.5645633193
scalar GridScenario.node[8].veinsmobility 	minSpeed 	3.2535733769468
scalar GridScenario.node[8].veinsmobility 	maxSpeed 	13.89929531868
scalar GridScenario.node[8].veinsmobility 	totalDistance 	1109.3498220669
scalar GridScenario.node[8].veinsmobility 	totalCO2Emission 	348.76962786761
scalar GridScenario.node[9].appl 	generatedWSMs 	56
scalar GridScenario.node[9].appl 	receivedWSMs 	913
scalar GridScenario.node[9].appl 	generatedBSMs 	0
scalar GridScenario.node[9].appl 	receivedBSMs 	0
scalar GridScenario.node[9].appl 	generatedWSAs 	0
scalar GridScenario.node[9].appl 	receivedWSAs 	0
scalar GridScenario.node[9].appl 	numInfectedSignal:count 	0
attr source  numInfectedSignal
attr title  "numInfected, count"
scalar GridScenario.node[9].appl 	numInfectedSignal:sum 	0
attr source  numInfectedSignal
attr title  "numInfected, sum"
scalar GridScenario.node[9].nic.phy80211p 	busyTime 	0.0020279145560288
scalar GridScenario.node[9].nic.phy80211p 	ncollisions 	0
scalar GridScenario.node[9].nic.mac1609_4 	ReceivedUnicastPackets 	0
scalar GridScenario.node[9].nic.mac1609_4 	ReceivedBroadcasts 	913
scalar GridScenario.node[9].nic.mac1609_4 	SentPackets 	56
scalar GridScenario.node[9].nic.mac1609_4 	SNIRLostPackets 	0
scalar GridScenario.node[9].nic.mac1609_4 	RXTXLostPackets 	0
scalar GridScenario.node[9].nic.mac1609_4 	TotalLostPackets 	0
scalar GridScenario.node[9].nic.mac1609_4 	DroppedPacketsInMac 	0
scalar GridScenario.node[9].nic.mac1609_4 	TooLittleTime 	0
scalar GridScenario.node[9].nic.mac1609_4 	TimesIntoBackoff 	56
scalar GridScenario.node[9].nic.mac1609_4 	SlotsBackoff 	80
scalar GridScenario.node[9].nic.mac1609_4 	NumInternalContention 	0
scalar GridScenario.node[9].nic.mac1609_4 	totalBusyTime 	0.224864
scalar GridScenario.node[9].veinsmobility 	startTime 	19
scalar GridScenario.node[9].veinsmobility 	totalTime 	104
scalar GridScenario.node[9].veinsmobility 	stopTime 	123.5645633193
scalar GridScenario.node[9].veinsmobility 	minSpeed 	3.2814272082558
scalar GridScenario.node[9].veinsmobility 	maxSpeed 	13.89994716925
scalar GridScenario.node[9].veinsmobility 	totalDistance 	1031.9258564623
scalar GridScenario.node[9].veinsmobility 	totalCO2Emission 	359.43430941356
