version 2
run General-0-20170619-13:55:53-11044
attr configname General
attr datetime 20170619-13:55:53
attr experiment General
attr inifile omnetpp.ini
attr iterationvars ""
attr iterationvars2 $repetition=0
attr measurement ""
attr network GridScenario
attr processid 11044
attr repetition 0
attr replication #0
attr resultdir results
attr runnumber 0
attr seedset 1
param **.coreDebug false
param **.debug false
param *.**.nic.mac1609_4.bitrate 6Mbps
param *.**.nic.mac1609_4.txPower 20mW
param *.**.nic.mac1609_4.useServiceChannel false
param *.**.nic.phy80211p.analogueModels "xmldoc(\"config.xml\")"
param *.**.nic.phy80211p.collectCollisionStatistics true
param *.**.nic.phy80211p.decider "xmldoc(\"config.xml\")"
param *.**.nic.phy80211p.sensitivity -89dBm
param *.**.nic.phy80211p.thermalNoise -110dBm
param *.**.nic.phy80211p.usePropagationDelay true
param *.**.nic.phy80211p.useThermalNoise true
param *.annotations.draw true
param *.connectionManager.alpha 2.0
param *.connectionManager.carrierFrequency "5.890e9 Hz"
param *.connectionManager.maxInterfDist 500m
param *.connectionManager.pMax 20mW
param *.connectionManager.sat -89dBm
param *.connectionManager.sendDirect true
param *.manager.autoShutdown true
param *.manager.host "\"localhost\""
param *.manager.launchConfig "xmldoc(\"manhattan.launchd.xml\")"
param *.manager.margin 25
param *.manager.moduleDisplayString "\"\""
param *.manager.moduleName "\"node\""
param *.manager.moduleType "\"org.car2x.veins.nodes.Car\""
param *.manager.port 9999
param *.manager.updateInterval 1s
param *.node[*0].veinsmobility.accidentCount 0
param *.node[*0].veinsmobility.accidentDuration 30s
param *.node[*0].veinsmobility.accidentStart 75s
param *.node[*].appl.debug false
param *.node[*].applType "\"VirusAppl\""
param *.node[*].mobilityType "\"TraCIMobility\""
param *.node[*].mobilityType.debug true
param *.node[*].veinsmobility.x 0
param *.node[*].veinsmobility.y 0
param *.node[*].veinsmobility.z 1.895
param *.node[*].veinsmobilityType "\"org.car2x.veins.modules.mobility.traci.TraCIMobility\""
param *.node[*].veinsmobilityType.debug true
param *.playgroundSizeX 1200m
param *.playgroundSizeY 900m
param *.playgroundSizeZ 50m
param *.world.use2D false
param *.world.useTorus false

vector 3  GridScenario.node[0].veinsmobility  posx  ETV
vector 4  GridScenario.node[0].veinsmobility  posy  ETV
vector 5  GridScenario.node[0].veinsmobility  speed  ETV
vector 6  GridScenario.node[0].veinsmobility  acceleration  ETV
vector 7  GridScenario.node[0].veinsmobility  co2emission  ETV
vector 11  GridScenario.node[1].veinsmobility  posx  ETV
vector 12  GridScenario.node[1].veinsmobility  posy  ETV
vector 13  GridScenario.node[1].veinsmobility  speed  ETV
vector 14  GridScenario.node[1].veinsmobility  acceleration  ETV
vector 15  GridScenario.node[1].veinsmobility  co2emission  ETV
vector 35  GridScenario.node[4].veinsmobility  posx  ETV
vector 36  GridScenario.node[4].veinsmobility  posy  ETV
vector 37  GridScenario.node[4].veinsmobility  speed  ETV
vector 38  GridScenario.node[4].veinsmobility  acceleration  ETV
vector 39  GridScenario.node[4].veinsmobility  co2emission  ETV
vector 43  GridScenario.node[5].veinsmobility  posx  ETV
vector 44  GridScenario.node[5].veinsmobility  posy  ETV
vector 45  GridScenario.node[5].veinsmobility  speed  ETV
vector 46  GridScenario.node[5].veinsmobility  acceleration  ETV
vector 47  GridScenario.node[5].veinsmobility  co2emission  ETV
vector 51  GridScenario.node[6].veinsmobility  posx  ETV
vector 52  GridScenario.node[6].veinsmobility  posy  ETV
vector 53  GridScenario.node[6].veinsmobility  speed  ETV
vector 54  GridScenario.node[6].veinsmobility  acceleration  ETV
vector 55  GridScenario.node[6].veinsmobility  co2emission  ETV
vector 59  GridScenario.node[7].veinsmobility  posx  ETV
vector 60  GridScenario.node[7].veinsmobility  posy  ETV
vector 61  GridScenario.node[7].veinsmobility  speed  ETV
vector 62  GridScenario.node[7].veinsmobility  acceleration  ETV
vector 63  GridScenario.node[7].veinsmobility  co2emission  ETV
vector 67  GridScenario.node[8].veinsmobility  posx  ETV
vector 68  GridScenario.node[8].veinsmobility  posy  ETV
vector 69  GridScenario.node[8].veinsmobility  speed  ETV
vector 70  GridScenario.node[8].veinsmobility  acceleration  ETV
vector 71  GridScenario.node[8].veinsmobility  co2emission  ETV
vector 75  GridScenario.node[9].veinsmobility  posx  ETV
vector 76  GridScenario.node[9].veinsmobility  posy  ETV
vector 77  GridScenario.node[9].veinsmobility  speed  ETV
vector 78  GridScenario.node[9].veinsmobility  acceleration  ETV
vector 79  GridScenario.node[9].veinsmobility  co2emission  ETV
vector 83  GridScenario.node[10].veinsmobility  posx  ETV
vector 84  GridScenario.node[10].veinsmobility  posy  ETV
vector 85  GridScenario.node[10].veinsmobility  speed  ETV
vector 86  GridScenario.node[10].veinsmobility  acceleration  ETV
vector 87  GridScenario.node[10].veinsmobility  co2emission  ETV
vector 91  GridScenario.node[11].veinsmobility  posx  ETV
vector 92  GridScenario.node[11].veinsmobility  posy  ETV
vector 93  GridScenario.node[11].veinsmobility  speed  ETV
vector 94  GridScenario.node[11].veinsmobility  acceleration  ETV
vector 95  GridScenario.node[11].veinsmobility  co2emission  ETV
vector 99  GridScenario.node[12].veinsmobility  posx  ETV
vector 100  GridScenario.node[12].veinsmobility  posy  ETV
vector 101  GridScenario.node[12].veinsmobility  speed  ETV
vector 102  GridScenario.node[12].veinsmobility  acceleration  ETV
vector 103  GridScenario.node[12].veinsmobility  co2emission  ETV
vector 107  GridScenario.node[13].veinsmobility  posx  ETV
vector 108  GridScenario.node[13].veinsmobility  posy  ETV
vector 109  GridScenario.node[13].veinsmobility  speed  ETV
vector 110  GridScenario.node[13].veinsmobility  acceleration  ETV
vector 111  GridScenario.node[13].veinsmobility  co2emission  ETV
vector 115  GridScenario.node[14].veinsmobility  posx  ETV
vector 116  GridScenario.node[14].veinsmobility  posy  ETV
vector 117  GridScenario.node[14].veinsmobility  speed  ETV
vector 118  GridScenario.node[14].veinsmobility  acceleration  ETV
vector 119  GridScenario.node[14].veinsmobility  co2emission  ETV
vector 123  GridScenario.node[15].veinsmobility  posx  ETV
vector 124  GridScenario.node[15].veinsmobility  posy  ETV
vector 125  GridScenario.node[15].veinsmobility  speed  ETV
vector 126  GridScenario.node[15].veinsmobility  acceleration  ETV
vector 127  GridScenario.node[15].veinsmobility  co2emission  ETV
vector 131  GridScenario.node[16].veinsmobility  posx  ETV
vector 132  GridScenario.node[16].veinsmobility  posy  ETV
vector 133  GridScenario.node[16].veinsmobility  speed  ETV
vector 134  GridScenario.node[16].veinsmobility  acceleration  ETV
vector 135  GridScenario.node[16].veinsmobility  co2emission  ETV
vector 139  GridScenario.node[17].veinsmobility  posx  ETV
vector 140  GridScenario.node[17].veinsmobility  posy  ETV
vector 141  GridScenario.node[17].veinsmobility  speed  ETV
vector 142  GridScenario.node[17].veinsmobility  acceleration  ETV
vector 143  GridScenario.node[17].veinsmobility  co2emission  ETV
vector 147  GridScenario.node[18].veinsmobility  posx  ETV
vector 148  GridScenario.node[18].veinsmobility  posy  ETV
vector 149  GridScenario.node[18].veinsmobility  speed  ETV
vector 150  GridScenario.node[18].veinsmobility  acceleration  ETV
vector 151  GridScenario.node[18].veinsmobility  co2emission  ETV
vector 155  GridScenario.node[19].veinsmobility  posx  ETV
vector 156  GridScenario.node[19].veinsmobility  posy  ETV
vector 157  GridScenario.node[19].veinsmobility  speed  ETV
vector 160  GridScenario.node[20].appl  numInfectedSignal:vector  ETV
attr source  numInfectedSignal
attr title  "numInfected, vector"
vector 163  GridScenario.node[20].veinsmobility  posx  ETV
vector 164  GridScenario.node[20].veinsmobility  posy  ETV
vector 158  GridScenario.node[19].veinsmobility  acceleration  ETV
vector 159  GridScenario.node[19].veinsmobility  co2emission  ETV
vector 165  GridScenario.node[20].veinsmobility  speed  ETV
vector 168  GridScenario.node[21].appl  numInfectedSignal:vector  ETV
attr source  numInfectedSignal
attr title  "numInfected, vector"
vector 171  GridScenario.node[21].veinsmobility  posx  ETV
vector 172  GridScenario.node[21].veinsmobility  posy  ETV
vector 166  GridScenario.node[20].veinsmobility  acceleration  ETV
vector 167  GridScenario.node[20].veinsmobility  co2emission  ETV
vector 173  GridScenario.node[21].veinsmobility  speed  ETV
vector 176  GridScenario.node[22].appl  numInfectedSignal:vector  ETV
attr source  numInfectedSignal
attr title  "numInfected, vector"
vector 179  GridScenario.node[22].veinsmobility  posx  ETV
vector 180  GridScenario.node[22].veinsmobility  posy  ETV
vector 174  GridScenario.node[21].veinsmobility  acceleration  ETV
vector 175  GridScenario.node[21].veinsmobility  co2emission  ETV
vector 181  GridScenario.node[22].veinsmobility  speed  ETV
143	179	40	0.973
143	387	41	0.973
143	824	42	0.973
143	1497	43	4.4474952075773
143	1823	44	5.2993316484617
143	2469	45	6.0907053331682
143	3291	46	7.2449464176377
142	179	40	-1.7869992570077
142	387	41	-2.7406464700733
142	824	42	-2.2424479047734
142	1497	43	2.2396265334018
142	1823	44	2.0386986423668
142	2469	45	1.9165866458949
142	3291	46	1.9517362436177
141	179	40	8.3912730704831
141	387	41	5.6506266004098
141	824	42	3.4081786956364
141	1497	43	5.6478052290382
141	1823	44	7.6865038714049
141	2469	45	9.6030905172998
141	3291	46	11.554826760918
140	179	40	162.29137480875
140	387	41	152.55406270483
140	824	42	145.58236951398
140	1497	43	141.11068246849
140	1823	44	136.73731214569
140	2469	45	130.18783736047
140	3291	46	124.28755483582
139	179	40	46.65
139	387	41	46.65
139	824	42	46.65
139	1497	43	46.65
139	1823	44	46.65
139	2469	45	45.556237231418
139	3291	46	39.55224288256
vector 184  GridScenario.node[23].appl  numInfectedSignal:vector  ETV
attr source  numInfectedSignal
attr title  "numInfected, vector"
vector 187  GridScenario.node[23].veinsmobility  posx  ETV
vector 188  GridScenario.node[23].veinsmobility  posy  ETV
vector 182  GridScenario.node[22].veinsmobility  acceleration  ETV
vector 183  GridScenario.node[22].veinsmobility  co2emission  ETV
vector 189  GridScenario.node[23].veinsmobility  speed  ETV
vector 192  GridScenario.node[24].appl  numInfectedSignal:vector  ETV
attr source  numInfectedSignal
attr title  "numInfected, vector"
vector 195  GridScenario.node[24].veinsmobility  posx  ETV
vector 196  GridScenario.node[24].veinsmobility  posy  ETV
vector 190  GridScenario.node[23].veinsmobility  acceleration  ETV
vector 191  GridScenario.node[23].veinsmobility  co2emission  ETV
vector 197  GridScenario.node[24].veinsmobility  speed  ETV
vector 200  GridScenario.node[25].appl  numInfectedSignal:vector  ETV
attr source  numInfectedSignal
attr title  "numInfected, vector"
vector 203  GridScenario.node[25].veinsmobility  posx  ETV
vector 204  GridScenario.node[25].veinsmobility  posy  ETV
vector 198  GridScenario.node[24].veinsmobility  acceleration  ETV
vector 199  GridScenario.node[24].veinsmobility  co2emission  ETV
vector 205  GridScenario.node[25].veinsmobility  speed  ETV
vector 208  GridScenario.node[26].appl  numInfectedSignal:vector  ETV
attr source  numInfectedSignal
attr title  "numInfected, vector"
vector 211  GridScenario.node[26].veinsmobility  posx  ETV
vector 212  GridScenario.node[26].veinsmobility  posy  ETV
vector 206  GridScenario.node[25].veinsmobility  acceleration  ETV
vector 207  GridScenario.node[25].veinsmobility  co2emission  ETV
vector 213  GridScenario.node[26].veinsmobility  speed  ETV
15	179	40	0.973
15	387	41	0.973
15	824	42	0.973
15	1497	43	2.5947765580961
15	1823	44	5.1574406454736
15	2469	45	5.7535327769095
15	3291	46	6.7751671936118
15	3796	47	8.1018583194573
15	4677	48	2.8934387139069
15	5776	49	0.973
15	6282	50	0.973
15	7390	51	0.973
15	8595	52	0.973
15	9154	53	5.142111097173
15	10434	54	5.4828094709209
14	179	40	-3.1780743981227
14	387	41	-2.8395267315156
14	824	42	-2.3811548111776
14	1497	43	1.0339685918655
14	1823	44	2.1458571339829
14	2469	45	1.9077199206191
14	3291	46	1.9076837237398
14	3796	47	1.9849347952439
14	4677	48	0.29395486732824
14	5776	49	-3.2350113181486
14	6282	50	-2.9421880474335
14	7390	51	-2.5210934819759
14	8595	52	-0.20264634854466
14	9154	53	2.3148466984206
14	10434	54	1.9036793673045
13	179	40	9.1410233910661
13	387	41	6.3014966595504
13	824	42	3.9203418483728
13	1497	43	4.9543104402383
13	1823	44	7.1001675742212
13	2469	45	9.0078874948404
13	3291	46	10.91557121858
13	3796	47	12.900506013824
13	4677	48	13.194460881152
13	5776	49	9.9594495630037
13	6282	50	7.0172615155702
13	7390	51	4.4961680335943
13	8595	52	4.2935216850497
13	9154	53	6.6083683834703
13	10434	54	8.5120477507748
12	179	40	164.54479877837
12	387	41	175.23428998377
12	824	42	182.91041613401
12	1497	43	187.96606942807
12	1823	44	191.89064884521
12	2469	45	197.98698518667
12	3291	46	205.88103241435
12	3796	47	215.70380523247
12	4677	48	227.60056921879
12	5776	49	241.17671090082
12	6282	50	252.71397715184
12	7390	51	261.15413351253
12	8595	52	266.85774497465
12	9154	53	270.67936171795
12	10434	54	276.02125061493
11	179	40	36.75
11	387	41	36.75
11	824	42	36.75
11	1497	43	36.75
11	1823	44	36.75
11	2469	45	37.0831214619
11	3291	46	38.617372626248
11	3796	47	40.00036613307
11	4677	48	36.75
11	5776	49	36.75
11	6282	50	36.75
11	7390	51	36.75
11	8595	52	36.75
11	9154	53	36.75
11	10434	54	35.911011902616
vector 216  GridScenario.node[27].appl  numInfectedSignal:vector  ETV
attr source  numInfectedSignal
attr title  "numInfected, vector"
vector 219  GridScenario.node[27].veinsmobility  posx  ETV
vector 220  GridScenario.node[27].veinsmobility  posy  ETV
vector 214  GridScenario.node[26].veinsmobility  acceleration  ETV
vector 215  GridScenario.node[26].veinsmobility  co2emission  ETV
vector 221  GridScenario.node[27].veinsmobility  speed  ETV
vector 224  GridScenario.node[28].appl  numInfectedSignal:vector  ETV
attr source  numInfectedSignal
attr title  "numInfected, vector"
vector 227  GridScenario.node[28].veinsmobility  posx  ETV
vector 228  GridScenario.node[28].veinsmobility  posy  ETV
vector 222  GridScenario.node[27].veinsmobility  acceleration  ETV
vector 223  GridScenario.node[27].veinsmobility  co2emission  ETV
vector 229  GridScenario.node[28].veinsmobility  speed  ETV
vector 232  GridScenario.node[29].appl  numInfectedSignal:vector  ETV
attr source  numInfectedSignal
attr title  "numInfected, vector"
vector 235  GridScenario.node[29].veinsmobility  posx  ETV
vector 236  GridScenario.node[29].veinsmobility  posy  ETV
vector 230  GridScenario.node[28].veinsmobility  acceleration  ETV
vector 231  GridScenario.node[28].veinsmobility  co2emission  ETV
vector 237  GridScenario.node[29].veinsmobility  speed  ETV
vector 240  GridScenario.node[30].appl  numInfectedSignal:vector  ETV
attr source  numInfectedSignal
attr title  "numInfected, vector"
vector 243  GridScenario.node[30].veinsmobility  posx  ETV
vector 244  GridScenario.node[30].veinsmobility  posy  ETV
vector 238  GridScenario.node[29].veinsmobility  acceleration  ETV
vector 239  GridScenario.node[29].veinsmobility  co2emission  ETV
vector 245  GridScenario.node[30].veinsmobility  speed  ETV
vector 248  GridScenario.node[31].appl  numInfectedSignal:vector  ETV
attr source  numInfectedSignal
attr title  "numInfected, vector"
vector 251  GridScenario.node[31].veinsmobility  posx  ETV
vector 252  GridScenario.node[31].veinsmobility  posy  ETV
vector 246  GridScenario.node[30].veinsmobility  acceleration  ETV
vector 247  GridScenario.node[30].veinsmobility  co2emission  ETV
vector 253  GridScenario.node[31].veinsmobility  speed  ETV
vector 256  GridScenario.node[32].appl  numInfectedSignal:vector  ETV
attr source  numInfectedSignal
attr title  "numInfected, vector"
vector 259  GridScenario.node[32].veinsmobility  posx  ETV
vector 260  GridScenario.node[32].veinsmobility  posy  ETV
vector 254  GridScenario.node[31].veinsmobility  acceleration  ETV
vector 255  GridScenario.node[31].veinsmobility  co2emission  ETV
vector 261  GridScenario.node[32].veinsmobility  speed  ETV
vector 264  GridScenario.node[33].appl  numInfectedSignal:vector  ETV
attr source  numInfectedSignal
attr title  "numInfected, vector"
vector 267  GridScenario.node[33].veinsmobility  posx  ETV
vector 268  GridScenario.node[33].veinsmobility  posy  ETV
vector 262  GridScenario.node[32].veinsmobility  acceleration  ETV
vector 263  GridScenario.node[32].veinsmobility  co2emission  ETV
vector 269  GridScenario.node[33].veinsmobility  speed  ETV
vector 272  GridScenario.node[34].appl  numInfectedSignal:vector  ETV
attr source  numInfectedSignal
attr title  "numInfected, vector"
vector 275  GridScenario.node[34].veinsmobility  posx  ETV
vector 276  GridScenario.node[34].veinsmobility  posy  ETV
vector 270  GridScenario.node[33].veinsmobility  acceleration  ETV
vector 271  GridScenario.node[33].veinsmobility  co2emission  ETV
vector 277  GridScenario.node[34].veinsmobility  speed  ETV
vector 280  GridScenario.node[35].appl  numInfectedSignal:vector  ETV
attr source  numInfectedSignal
attr title  "numInfected, vector"
vector 283  GridScenario.node[35].veinsmobility  posx  ETV
vector 284  GridScenario.node[35].veinsmobility  posy  ETV
vector 278  GridScenario.node[34].veinsmobility  acceleration  ETV
vector 279  GridScenario.node[34].veinsmobility  co2emission  ETV
vector 285  GridScenario.node[35].veinsmobility  speed  ETV
vector 288  GridScenario.node[36].appl  numInfectedSignal:vector  ETV
attr source  numInfectedSignal
attr title  "numInfected, vector"
vector 291  GridScenario.node[36].veinsmobility  posx  ETV
vector 292  GridScenario.node[36].veinsmobility  posy  ETV
vector 286  GridScenario.node[35].veinsmobility  acceleration  ETV
vector 287  GridScenario.node[35].veinsmobility  co2emission  ETV
vector 293  GridScenario.node[36].veinsmobility  speed  ETV
vector 296  GridScenario.node[37].appl  numInfectedSignal:vector  ETV
attr source  numInfectedSignal
attr title  "numInfected, vector"
vector 299  GridScenario.node[37].veinsmobility  posx  ETV
vector 300  GridScenario.node[37].veinsmobility  posy  ETV
vector 294  GridScenario.node[36].veinsmobility  acceleration  ETV
vector 295  GridScenario.node[36].veinsmobility  co2emission  ETV
vector 301  GridScenario.node[37].veinsmobility  speed  ETV
vector 304  GridScenario.node[38].appl  numInfectedSignal:vector  ETV
attr source  numInfectedSignal
attr title  "numInfected, vector"
vector 307  GridScenario.node[38].veinsmobility  posx  ETV
vector 308  GridScenario.node[38].veinsmobility  posy  ETV
vector 302  GridScenario.node[37].veinsmobility  acceleration  ETV
vector 303  GridScenario.node[37].veinsmobility  co2emission  ETV
vector 309  GridScenario.node[38].veinsmobility  speed  ETV
vector 312  GridScenario.node[39].appl  numInfectedSignal:vector  ETV
attr source  numInfectedSignal
attr title  "numInfected, vector"
vector 315  GridScenario.node[39].veinsmobility  posx  ETV
vector 316  GridScenario.node[39].veinsmobility  posy  ETV
vector 310  GridScenario.node[38].veinsmobility  acceleration  ETV
vector 311  GridScenario.node[38].veinsmobility  co2emission  ETV
vector 317  GridScenario.node[39].veinsmobility  speed  ETV
vector 320  GridScenario.node[40].appl  numInfectedSignal:vector  ETV
attr source  numInfectedSignal
attr title  "numInfected, vector"
vector 323  GridScenario.node[40].veinsmobility  posx  ETV
vector 324  GridScenario.node[40].veinsmobility  posy  ETV
vector 318  GridScenario.node[39].veinsmobility  acceleration  ETV
vector 319  GridScenario.node[39].veinsmobility  co2emission  ETV
vector 325  GridScenario.node[40].veinsmobility  speed  ETV
vector 328  GridScenario.node[41].appl  numInfectedSignal:vector  ETV
attr source  numInfectedSignal
attr title  "numInfected, vector"
vector 331  GridScenario.node[41].veinsmobility  posx  ETV
vector 332  GridScenario.node[41].veinsmobility  posy  ETV
vector 326  GridScenario.node[40].veinsmobility  acceleration  ETV
vector 327  GridScenario.node[40].veinsmobility  co2emission  ETV
vector 333  GridScenario.node[41].veinsmobility  speed  ETV
vector 336  GridScenario.node[42].appl  numInfectedSignal:vector  ETV
attr source  numInfectedSignal
attr title  "numInfected, vector"
vector 339  GridScenario.node[42].veinsmobility  posx  ETV
vector 340  GridScenario.node[42].veinsmobility  posy  ETV
vector 334  GridScenario.node[41].veinsmobility  acceleration  ETV
vector 335  GridScenario.node[41].veinsmobility  co2emission  ETV
vector 341  GridScenario.node[42].veinsmobility  speed  ETV
159	387	41	4.3263378684066
159	824	42	5.1350238828188
159	1497	43	6.1943357766575
159	1823	44	0.973
159	2469	45	0.973
159	3291	46	0.973
159	3796	47	3.8276976457404
159	4677	48	5.2664469997179
159	5776	49	5.9946981873695
159	6282	50	7.3425043824135
159	7390	51	8.1144411768341
159	8595	52	0.973
159	9154	53	0.973
159	10434	54	0.973
159	11686	55	0.973
159	12408	56	2.274797574815
159	13711	57	5.2339481805168
159	15339	58	5.6608822954348
159	16282	59	7.0924240592386
159	17988	60	8.0983096999662
159	19753	61	3.1112933398067
159	20973	62	0.973
159	22702	63	0.973
159	24702	64	0.973
159	25999	65	0.973
159	28107	66	5.2089940743988
159	30184	67	5.6823644058084
159	31752	68	6.6575082895974
159	33955	69	7.8546241942599
159	36489	70	6.7213172306447
159	38146	71	2.0331134776959
159	40557	72	2.0225982690679
159	43273	73	2.0263184136098
159	45204	74	2.0208582852603
159	47881	75	2.0448526836134
159	51096	76	2.0437382331477
159	53074	77	2.0218108163453
159	56058	78	2.0055948334484
159	59344	79	2.0316458115136
159	61476	80	2.0566307095993
159	64483	81	1.9954208010686
159	68211	82	2.057052845963
159	70402	83	2.030833633253
159	73866	84	2.0146085917595
159	77707	85	2.0331162521936
159	80433	86	2.0187316461866
158	387	41	1.966432533273
158	824	42	1.8667217313843
158	1497	43	1.8970472935571
158	1823	44	-1.2656909855264
158	2469	45	-2.772727672234
158	3291	46	-2.2892264020041
158	3796	47	1.867888428426
158	4677	48	2.0775675549046
158	5776	49	1.9177859613432
158	6282	50	2.0121520494818
158	7390	51	1.910172864994
158	8595	52	-0.83128858195801
158	9154	53	-3.1880922995212
158	10434	54	-2.8690966382822
158	11686	55	-2.4031793939873
158	12408	56	0.78966611728407
158	13711	57	2.2087821362889
158	15339	58	1.8835480623573
158	16282	59	2.0204674719656
158	17988	60	1.9783544982725
158	19753	61	0.3571293536623
158	20973	62	-3.2583303246489
158	22702	63	-2.9420342846502
158	24702	64	-2.5268768670653
158	25999	65	-0.3614063743802
158	28107	66	2.3718797796455
158	30184	67	1.9884452438459
158	31752	68	1.9482738351759
158	33955	69	1.9810432034016
158	36489	70	1.4021113866794
158	38146	71	0.0015844062268719
158	40557	72	-0.0015106477423092
158	43273	73	-0.00038759199762772
158	45204	74	-0.0019594458071523
158	47881	75	0.0050540025490342
158	51096	76	0.0045804500498345
158	53074	77	-0.0019085993084591
158	56058	78	-0.0065547804103705
158	59344	79	0.0011915795872923
158	61476	80	0.0083948969196062
158	64483	81	-0.0095940244279333
158	68211	82	0.0085531868089461
158	70402	83	0.00070365890953639
158	73866	84	-0.004019362820312
158	77707	85	0.0014630654761572
158	80433	86	-0.0027492505945279
157	179	40	4.1528223876855
157	387	41	6.1192549209585
157	824	42	7.9859766523428
157	1497	43	9.8830239458999
157	1823	44	8.6173329603735
157	2469	45	5.8446052881395
157	3291	46	3.5553788861354
157	3796	47	5.4232673145614
157	4677	48	7.500834869466
157	5776	49	9.4186208308092
157	6282	50	11.430772880291
157	7390	51	13.340945745285
157	8595	52	12.509657163327
157	9154	53	9.3215648638059
157	10434	54	6.4524682255237
157	11686	55	4.0492888315363
157	12408	56	4.8389549488204
157	13711	57	7.0477370851093
157	15339	58	8.9312851474667
157	16282	59	10.951752619432
157	17988	60	12.930107117705
157	19753	61	13.287236471367
157	20973	62	10.028906146718
157	22702	63	7.086871862068
157	24702	64	4.5599949950026
157	25999	65	4.1985886206224
157	28107	66	6.5704684002679
157	30184	67	8.5589136441138
157	31752	68	10.50718747929
157	33955	69	12.488230682691
157	36489	70	13.890342069371
157	38146	71	13.891926475598
157	40557	72	13.890415827855
157	43273	73	13.890028235858
157	45204	74	13.88806879005
157	47881	75	13.893122792599
157	51096	76	13.897703242649
157	53074	77	13.895794643341
157	56058	78	13.88923986293
157	59344	79	13.890431442518
157	61476	80	13.898826339437
157	64483	81	13.889232315009
157	68211	82	13.897785501818
157	70402	83	13.898489160728
157	73866	84	13.894469797908
157	77707	85	13.895932863384
157	80433	86	13.893183612789
156	179	40	302.63616082845
156	387	41	305.84204633157
156	824	42	310.99731773715
156	1497	43	318.04952550132
156	1823	44	326.99010817697
156	2469	45	336.8053838847
156	3291	46	343.9843111351
156	3796	47	348.62784532083
156	4677	48	352.81985784491
156	5776	49	359.32812756598
156	6282	50	367.57053447874
156	7390	51	377.91866650728
156	8595	52	390.29400855785
156	9154	53	403.82122126716
156	10434	54	414.69670010708
156	11686	55	422.53936108085
156	12408	56	427.73494126567
156	13711	57	431.62773636535
156	15339	58	437.64982032539
156	16282	59	445.48695840927
156	17988	60	455.29626178231
156	19753	61	467.24087825265
156	20973	62	480.84230081919
156	22702	63	492.46162388403
156	24702	64	500.9765144914
156	25999	65	506.74342315215
156	28107	66	510.55969279321
156	30184	67	516.00479888849
156	31752	68	522.93959736514
156	33955	69	526.44082274048
156	36489	70	526.65
156	38146	71	526.65
156	40557	72	526.65
156	43273	73	526.65
156	45204	74	526.65
156	47881	75	526.65
156	51096	76	526.65
156	53074	77	526.65
156	56058	78	526.65
156	59344	79	526.65
156	61476	80	526.65
156	64483	81	526.65
156	68211	82	526.65
156	70402	83	526.65
156	73866	84	526.65
156	77707	85	526.65
156	80433	86	526.65
155	179	40	311.75
155	387	41	311.75
155	824	42	311.75
155	1497	43	311.75
155	1823	44	311.75
155	2469	45	311.75
155	3291	46	311.75
155	3796	47	311.75
155	4677	48	311.75
155	5776	49	312.18613387508
155	6282	50	314.03421483864
155	7390	51	315.05
155	8595	52	315.05
155	9154	53	315.05
155	10434	54	315.05
155	11686	55	315.05
155	12408	56	315.05
155	13711	57	315.05
155	15339	58	315.35722401318
155	16282	59	316.82014476036
155	17988	60	318.2690629434
155	19753	61	318.35
155	20973	62	318.35
155	22702	63	318.35
155	24702	64	318.35
155	25999	65	318.35
155	28107	66	318.35
155	30184	67	318.68521741646
155	31752	68	321.32330482043
155	33955	69	329.88059431278
155	36489	70	341.37040607628
155	38146	71	354.77535317905
155	40557	72	368.66885263198
155	43273	73	382.56233074098
155	45204	74	396.45618422907
155	47881	75	410.3497859238
155	51096	76	424.24247580992
155	53074	77	438.13619899604
155	56058	78	452.02994405573
155	59344	79	465.92367029566
155	61476	80	479.81664996743
155	64483	81	493.71009281544
155	68211	82	507.60371474173
155	70402	83	521.49698499148
155	73866	84	535.39032008755
155	77707	85	549.28318268608
155	80433	86	563.1766598285
vector 344  GridScenario.node[43].appl  numInfectedSignal:vector  ETV
attr source  numInfectedSignal
attr title  "numInfected, vector"
vector 347  GridScenario.node[43].veinsmobility  posx  ETV
vector 348  GridScenario.node[43].veinsmobility  posy  ETV
vector 342  GridScenario.node[42].veinsmobility  acceleration  ETV
vector 343  GridScenario.node[42].veinsmobility  co2emission  ETV
vector 349  GridScenario.node[43].veinsmobility  speed  ETV
vector 350  GridScenario.node[43].veinsmobility  acceleration  ETV
vector 351  GridScenario.node[43].veinsmobility  co2emission  ETV
vector 352  GridScenario.node[44].appl  numInfectedSignal:vector  ETV
attr source  numInfectedSignal
attr title  "numInfected, vector"
vector 355  GridScenario.node[44].veinsmobility  posx  ETV
vector 356  GridScenario.node[44].veinsmobility  posy  ETV
vector 360  GridScenario.node[45].appl  numInfectedSignal:vector  ETV
attr source  numInfectedSignal
attr title  "numInfected, vector"
vector 363  GridScenario.node[45].veinsmobility  posx  ETV
vector 364  GridScenario.node[45].veinsmobility  posy  ETV
vector 357  GridScenario.node[44].veinsmobility  speed  ETV
vector 358  GridScenario.node[44].veinsmobility  acceleration  ETV
vector 359  GridScenario.node[44].veinsmobility  co2emission  ETV
vector 365  GridScenario.node[45].veinsmobility  speed  ETV
vector 368  GridScenario.node[46].appl  numInfectedSignal:vector  ETV
attr source  numInfectedSignal
attr title  "numInfected, vector"
vector 371  GridScenario.node[46].veinsmobility  posx  ETV
vector 372  GridScenario.node[46].veinsmobility  posy  ETV
vector 366  GridScenario.node[45].veinsmobility  acceleration  ETV
vector 367  GridScenario.node[45].veinsmobility  co2emission  ETV
vector 373  GridScenario.node[46].veinsmobility  speed  ETV
151	179	40	5.4400114185295
151	387	41	6.6046688725873
151	824	42	0.973
151	1497	43	0.973
151	1823	44	0.973
151	2469	45	4.3012205804721
151	3291	46	5.1736374517604
151	3796	47	6.057621801347
151	4677	48	7.1934058801108
151	5776	49	8.3266492701698
151	6282	50	3.5941196079979
151	7390	51	2.0123681042686
151	8595	52	2.0486095132816
151	9154	53	1.9957896263414
151	10434	54	2.0557760570734
151	11686	55	2.0011791930101
151	12408	56	2.0704967799471
151	13711	57	1.9964008690286
151	15339	58	2.0428660660605
151	16282	59	2.0448094298517
151	17988	60	2.0249285050545
151	19753	61	2.007730707278
151	20973	62	2.0177468791932
151	22702	63	2.0546258571427
151	24702	64	0.973
151	25999	65	0.973
151	28107	66	0.973
151	30184	67	0.973
151	31752	68	3.343758209715
151	33955	69	5.2831361797117
151	36489	70	5.8154135932916
151	38146	71	6.9692683263523
151	40557	72	8.2235516847517
151	43273	73	4.4902432494287
151	45204	74	2.0151526799543
151	47881	75	2.0363087645224
151	51096	76	2.0209495268535
151	53074	77	2.020197205356
151	56058	78	2.0495713796377
151	59344	79	2.0138988597317
151	61476	80	2.0146770598837
151	64483	81	2.0269904714266
151	68211	82	2.0505220985812
151	70402	83	2.0080313397306
151	73866	84	2.0270980677796
151	77707	85	2.0629035963007
151	80433	86	2.0044688525677
151	83884	87	0.973
151	87888	88	0.973
151	90679	89	0.973
151	93980	90	0.973
151	98110	91	1.6435748593429
151	101142	92	5.1792344655911
151	104959	93	5.6698633019766
151	109731	94	6.7852025306339
150	179	40	1.9747462230841
150	387	41	2.0025725424718
150	824	42	-1.7190049065042
150	1497	43	-2.7479714232914
150	1823	44	-2.2607936700545
150	2469	45	2.1547141879012
150	3291	46	1.9984203011722
150	3796	47	1.9225993278133
150	4677	48	1.9508535212055
150	5776	49	1.9608593594639
150	6282	50	0.46764955279378
150	7390	51	-0.0045647227813017
150	8595	52	0.0060741910438509
150	9154	53	-0.0094177963694086
150	10434	54	0.0082502387857524
150	11686	55	-0.00782024018676
150	12408	56	0.012499698993517
150	13711	57	-0.0093417735218537
150	15339	58	0.0044030401143242
150	16282	59	0.0048347656833947
150	17988	60	-0.0010677273264168
150	19753	61	-0.0060216914471223
150	20973	62	-0.0029414004296999
150	22702	63	0.0078331724521696
150	24702	64	-1.9222206913372
150	25999	65	-3.1411130132383
150	28107	66	-2.7984259000028
150	30184	67	-2.3301758256508
150	31752	68	1.5520893549237
150	33955	69	2.124534947979
150	36489	70	1.8758706344841
150	38146	71	1.9257476853756
150	40557	72	1.9763204822177
150	43273	73	0.73520866642293
150	45204	74	-0.0037734771259146
150	47881	75	0.0024702328054715
150	51096	76	-0.0020545579486075
150	53074	77	-0.0022124025414225
150	56058	78	0.0063662500388464
150	59344	79	-0.004160298019416
150	61476	80	-0.0038130685202766
150	64483	81	-0.00013025943306388
150	68211	82	0.0066936493443794
150	70402	83	-0.0058208469974339
150	73866	84	-0.00012095064483653
150	77707	85	0.010256783113118
150	80433	86	-0.0069794733647726
150	83884	87	-1.0218088304047
150	87888	88	-3.2169636025117
150	90679	89	-2.8992811001093
150	93980	90	-2.4724559456178
150	98110	91	0.27748218390285
150	101142	92	2.2586023202799
150	104959	93	1.932716652136
150	109731	94	1.9554739455397
149	179	40	8.1650184141121
149	387	41	10.167590956584
149	824	42	8.4485860500797
149	1497	43	5.7006146267883
149	1823	44	3.4398209567338
149	2469	45	5.594535144635
149	3291	46	7.5929554458072
149	3796	47	9.5155547736205
149	4677	48	11.466408294826
149	5776	49	13.42726765429
149	6282	50	13.894917207084
149	7390	51	13.890352484302
149	8595	52	13.896426675346
149	9154	53	13.887008878977
149	10434	54	13.895259117763
149	11686	55	13.887438877576
149	12408	56	13.899938576569
149	13711	57	13.890596803047
149	15339	58	13.894999843162
149	16282	59	13.899834608845
149	17988	60	13.898766881519
149	19753	61	13.892745190072
149	20973	62	13.889803789642
149	22702	63	13.897636962094
149	24702	64	11.975416270757
149	25999	65	8.8343032575186
149	28107	66	6.0358773575157
149	30184	67	3.7057015318649
149	31752	68	5.2577908867886
149	33955	69	7.3823258347677
149	36489	70	9.2581964692517
149	38146	71	11.183944154627
149	40557	72	13.160264636845
149	43273	73	13.895473303268
149	45204	74	13.891699826142
149	47881	75	13.894170058948
149	51096	76	13.892115500999
149	53074	77	13.889903098457
149	56058	78	13.896269348496
149	59344	79	13.892109050477
149	61476	80	13.888295981957
149	64483	81	13.888165722524
149	68211	82	13.894859371868
149	70402	83	13.889038524871
149	73866	84	13.888917574226
149	77707	85	13.899174357339
149	80433	86	13.892194883974
149	83884	87	12.870386053569
149	87888	88	9.6534224510576
149	90679	89	6.7541413509483
149	93980	90	4.2816854053305
149	98110	91	4.5591675892333
149	101142	92	6.8177699095132
149	104959	93	8.7504865616493
149	109731	94	10.705960507189
148	179	40	151.15389924667
148	387	41	158.33989595598
148	824	42	167.5107044528
148	1497	43	177.28855422205
148	1823	44	184.31199171175
148	2469	45	188.8254947266
148	3291	46	193.15312508776
148	3796	47	199.66341491981
148	4677	48	205.56661514251
148	5776	49	209.95
148	6282	50	209.95
148	7390	51	209.95
148	8595	52	209.95
148	9154	53	209.95
148	10434	54	209.95
148	11686	55	209.95
148	12408	56	209.95
148	13711	57	209.95
148	15339	58	209.95
148	16282	59	209.95
148	17988	60	209.95
148	19753	61	209.95
148	20973	62	209.95
148	22702	63	209.95
148	24702	64	209.95
148	25999	65	209.95
148	28107	66	209.95
148	30184	67	209.95
148	31752	68	209.95
148	33955	69	209.95
148	36489	70	209.55294581069
148	38146	71	207.8135091793
148	40557	72	209.95
148	43273	73	209.95
148	45204	74	209.95
148	47881	75	209.95
148	51096	76	209.95
148	53074	77	209.95
148	56058	78	209.95
148	59344	79	209.95
148	61476	80	209.95
148	64483	81	209.95
148	68211	82	209.95
148	70402	83	209.95
148	73866	84	209.95
148	77707	85	209.95
148	80433	86	209.95
148	83884	87	209.95
148	87888	88	209.95
148	90679	89	209.95
148	93980	90	209.95
148	98110	91	209.95
148	101142	92	209.95
148	104959	93	209.70098041868
148	109731	94	208.41325707868
147	179	40	593.35
147	387	41	593.35
147	824	42	593.35
147	1497	43	593.35
147	1823	44	593.35
147	2469	45	593.35
147	3291	46	593.35
147	3796	47	594.35436758727
147	4677	48	600.20510552401
147	5776	49	610.58137768932
147	6282	50	623.02908408496
147	7390	51	636.86354419703
147	8595	52	650.75669793883
147	9154	53	664.64991310639
147	10434	54	678.5438692758
147	11686	55	692.43683816736
147	12408	56	706.32974035305
147	13711	57	720.22320479492
147	15339	58	734.11717941686
147	16282	59	748.01110010416
147	17988	60	761.90501147196
147	19753	61	775.79809331418
147	20973	62	789.69154964082
147	22702	63	803.58495539971
147	24702	64	817.47886679902
147	25999	65	830.80706099883
147	28107	66	841.16826876808
147	30184	67	848.55125995392
147	31752	68	853.36257193665
147	33955	69	857.44727124104
147	36489	70	863.81934011853
147	38146	71	871.9717946538
147	40557	72	882.11989068016
147	43273	73	894.31011182215
147	45204	74	908.0781021001
147	47881	75	921.97193737473
147	51096	76	935.86488998662
147	53074	77	949.7579259387
147	56058	78	963.65179788781
147	59344	79	977.54516595642
147	61476	80	991.43838236061
147	64483	81	1005.3317693784
147	68211	82	1019.2254517051
147	70402	83	1033.1190387703
147	73866	84	1047.012139334
147	77707	85	1060.9050524904
147	80433	86	1074.7991988198
147	83884	87	1088.6926586284
147	87888	88	1102.4256466953
147	90679	89	1113.653301803
147	93980	90	1121.8134870608
147	98110	91	1127.2775808532
147	101142	92	1131.1123177451
147	104959	93	1136.8920433953
147	109731	94	1144.5409580351
vector 376  GridScenario.node[47].appl  numInfectedSignal:vector  ETV
attr source  numInfectedSignal
attr title  "numInfected, vector"
vector 379  GridScenario.node[47].veinsmobility  posx  ETV
vector 380  GridScenario.node[47].veinsmobility  posy  ETV
vector 374  GridScenario.node[46].veinsmobility  acceleration  ETV
vector 375  GridScenario.node[46].veinsmobility  co2emission  ETV
vector 381  GridScenario.node[47].veinsmobility  speed  ETV
176	2469	45	2
183	3796	47	4.3370871213737
183	4677	48	5.4317566191748
183	5776	49	6.3584632483393
183	6282	50	0.973
183	7390	51	0.973
183	8595	52	0.973
183	9154	53	4.2241235782508
183	10434	54	5.3596916826463
183	11686	55	6.2579169777095
183	12408	56	7.2735244290589
183	13711	57	8.2892692349908
183	15339	58	3.2773453145746
183	16282	59	2.0350859426535
183	17988	60	2.0354665052246
183	19753	61	2.0305420545598
183	20973	62	2.0265146188052
183	22702	63	2.0280775764977
183	24702	64	2.0042828473669
183	25999	65	2.0517573834223
183	28107	66	1.9948659653265
183	30184	67	2.0265155994297
183	31752	68	2.0301226388236
183	33955	69	2.0609600949218
183	36489	70	1.9879121766227
183	38146	71	2.0460882633825
183	40557	72	0.973
183	43273	73	0.973
183	45204	74	0.973
183	47881	75	0.973
183	51096	76	2.6758588422662
183	53074	77	4.9265206788081
183	56058	78	5.6817725291898
183	59344	79	6.8632866460052
183	61476	80	7.7779568531379
183	64483	81	2.0859349009521
183	68211	82	0.973
183	70402	83	0.973
183	73866	84	0.973
183	77707	85	1.806059659778
183	80433	86	5.3151289222502
183	83884	87	5.6435935148921
183	87888	88	6.8082215929712
183	90679	89	7.9861091926097
183	93980	90	4.5814009102046
183	98110	91	0.973
183	101142	92	0.973
183	104959	93	0.973
183	109731	94	0.973
183	112906	95	5.1244478581381
183	117270	96	5.5685548260133
182	3796	47	1.9539759592037
182	4677	48	1.9749241171621
182	5776	49	1.9231066778337
182	6282	50	-1.5956707779828
182	7390	51	-2.7508463870708
182	8595	52	-2.2629904814987
182	9154	53	2.1076422577728
182	10434	54	2.0817753172479
182	11686	55	1.9815394864997
182	12408	56	1.9551878690903
182	13711	57	1.9328320187253
182	15339	58	0.37305955833538
182	16282	59	0.0020241193110131
182	17988	60	0.002074405506951
182	19753	61	0.00058641635603252
182	20973	62	-0.00059774780529587
182	22702	63	-0.00012727583618855
182	24702	64	-0.0070212927127713
182	25999	65	0.0069445372680192
182	28107	66	-0.0097507735346429
182	30184	67	-0.00028660633275379
182	31752	68	0.0007676671049559
182	33955	69	0.0096792299461086
182	36489	70	-0.011780400710647
182	38146	71	0.0054347000296708
182	40557	72	-2.0060282764092
182	43273	73	-3.1335690117991
182	45204	74	-2.7834900759265
182	47881	75	-2.3113815731527
182	51096	76	1.1439730667924
182	53074	77	2.082013868235
182	56058	78	1.923804608152
182	59344	79	1.9701862222445
182	61476	80	1.9173746606277
182	64483	81	0.055105597393545
182	68211	82	-3.1986061038238
182	70402	83	-2.8979902609643
182	73866	84	-2.4474731348174
182	77707	85	0.41638416557717
182	80433	86	2.3013410009565
182	83884	87	1.9014084955845
182	87888	88	1.9495937208519
182	90679	89	1.97518521497
182	93980	90	0.79305928970129
182	98110	91	-3.2593750661579
182	101142	92	-2.9787341245294
182	104959	93	-2.570854502875
182	109731	94	-0.7016475464856
182	112906	95	2.3810723927314
182	117270	96	1.9774646208328
181	3291	46	4.220260856601
181	3796	47	6.1742368158046
181	4677	48	8.1491609329667
181	5776	49	10.0722676108
181	6282	50	8.4765968328176
181	7390	51	5.7257504457468
181	8595	52	3.4627599642482
181	9154	53	5.5704022220209
181	10434	54	7.6521775392689
181	11686	55	9.6337170257686
181	12408	56	11.588904894859
181	13711	57	13.521736913584
181	15339	58	13.89479647192
181	16282	59	13.896820591231
181	17988	60	13.898894996738
181	19753	61	13.899481413094
181	20973	62	13.898883665288
181	22702	63	13.898756389452
181	24702	64	13.891735096739
181	25999	65	13.898679634007
181	28107	66	13.888928860473
181	30184	67	13.88864225414
181	31752	68	13.889409921245
181	33955	69	13.899089151191
181	36489	70	13.88730875048
181	38146	71	13.89274345051
181	40557	72	11.886715174101
181	43273	73	8.7531461623018
181	45204	74	5.9696560863753
181	47881	75	3.6582745132226
181	51096	76	4.802247580015
181	53074	77	6.88426144825
181	56058	78	8.808066056402
181	59344	79	10.778252278646
181	61476	80	12.695626939274
181	64483	81	12.750732536668
181	68211	82	9.5521264328439
181	70402	83	6.6541361718796
181	73866	84	4.2066630370622
181	77707	85	4.6230472026394
181	80433	86	6.9243882035958
181	83884	87	8.8257966991803
181	87888	88	10.775390420032
181	90679	89	12.750575635002
181	93980	90	13.543634924704
181	98110	91	10.284259858546
181	101142	92	7.3055257340162
181	104959	93	4.7346712311412
181	109731	94	4.0330236846556
181	112906	95	6.414096077387
181	117270	96	8.3915606982198
180	2469	45	267.36157510716
180	3291	46	267.36157510716
180	3796	47	264.08421738992
180	4677	48	258.86107322551
180	5776	49	251.69023191684
180	6282	50	242.5657044369
180	7390	51	232.78929044073
180	8595	52	225.74068652025
180	9154	53	221.2055744124
180	10434	54	216.89795358597
180	11686	55	210.35147629517
180	12408	56	204.39278641597
180	13711	57	203.35
180	15339	58	203.35
180	16282	59	203.35
180	17988	60	203.35
180	19753	61	203.35
180	20973	62	203.35
180	22702	63	203.35
180	24702	64	203.35
180	25999	65	203.35
180	28107	66	203.35
180	30184	67	203.35
180	31752	68	203.35
180	33955	69	203.35
180	36489	70	203.35
180	38146	71	203.35
180	40557	72	203.35
180	43273	73	203.35
180	45204	74	203.35
180	47881	75	203.35
180	51096	76	203.35
180	53074	77	203.35
180	56058	78	204.02144461029
180	59344	79	208.42179786793
180	61476	80	217.7884783744
180	64483	81	229.54075568154
180	68211	82	242.87959605237
180	70402	83	253.99366855913
180	73866	84	262.05097737398
180	77707	85	267.42844187653
180	80433	86	271.26143190725
180	83884	87	277.10661229585
180	87888	88	284.83456789247
180	90679	89	294.47828711758
180	93980	90	306.24184040308
180	98110	91	319.79227252591
180	101142	92	331.66711918162
180	104959	93	340.41393307428
180	109731	94	346.38004911914
180	112906	95	350.24952941892
180	117270	96	355.47316405901
179	2469	45	321.65
179	3291	46	321.65
179	3796	47	321.65
179	4677	48	321.65
179	5776	49	321.65
179	6282	50	321.65
179	7390	51	321.65
179	8595	52	321.65
179	9154	53	321.65
179	10434	54	321.65
179	11686	55	320.65458181286
179	12408	56	314.72734133149
179	13711	57	304.22587462001
179	15339	58	291.64811349717
179	16282	59	277.79275761298
179	17988	60	263.89881039567
179	19753	61	250.00501400081
179	20973	62	236.11108614812
179	22702	63	222.21702814634
179	24702	64	208.32364264123
179	25999	65	194.43058460263
179	28107	66	180.53646612349
179	30184	67	166.64292947022
179	31752	68	152.74942510574
179	33955	69	138.85638577019
179	36489	70	124.96276482173
179	38146	71	111.06942798587
179	40557	72	97.17592119711
179	43273	73	83.897003690761
179	45204	74	73.614219663408
179	47881	75	66.299968987973
179	51096	76	61.546145299559
179	53074	77	57.488796535873
179	56058	78	51.63330884869
179	59344	79	45.505126404493
179	61476	80	36.75
179	64483	81	36.75
179	68211	82	36.75
179	70402	83	36.75
179	73866	84	36.75
179	77707	85	36.75
179	80433	86	36.75
179	83884	87	37.015500501306
179	87888	88	38.35918378133
179	90679	89	39.906234756446
179	93980	90	36.75
179	98110	91	36.75
179	101142	92	36.75
179	104959	93	36.75
179	109731	94	36.75
179	112906	95	36.75
179	117270	96	36.283056542033
vector 384  GridScenario.node[48].appl  numInfectedSignal:vector  ETV
attr source  numInfectedSignal
attr title  "numInfected, vector"
vector 387  GridScenario.node[48].veinsmobility  posx  ETV
vector 388  GridScenario.node[48].veinsmobility  posy  ETV
vector 382  GridScenario.node[47].veinsmobility  acceleration  ETV
vector 383  GridScenario.node[47].veinsmobility  co2emission  ETV
vector 389  GridScenario.node[48].veinsmobility  speed  ETV
vector 392  GridScenario.node[49].appl  numInfectedSignal:vector  ETV
attr source  numInfectedSignal
attr title  "numInfected, vector"
vector 395  GridScenario.node[49].veinsmobility  posx  ETV
vector 396  GridScenario.node[49].veinsmobility  posy  ETV
vector 390  GridScenario.node[48].veinsmobility  acceleration  ETV
vector 391  GridScenario.node[48].veinsmobility  co2emission  ETV
vector 397  GridScenario.node[49].veinsmobility  speed  ETV
vector 400  GridScenario.node[50].appl  numInfectedSignal:vector  ETV
attr source  numInfectedSignal
attr title  "numInfected, vector"
vector 403  GridScenario.node[50].veinsmobility  posx  ETV
vector 404  GridScenario.node[50].veinsmobility  posy  ETV
vector 398  GridScenario.node[49].veinsmobility  acceleration  ETV
vector 399  GridScenario.node[49].veinsmobility  co2emission  ETV
vector 405  GridScenario.node[50].veinsmobility  speed  ETV
vector 408  GridScenario.node[51].appl  numInfectedSignal:vector  ETV
attr source  numInfectedSignal
attr title  "numInfected, vector"
vector 411  GridScenario.node[51].veinsmobility  posx  ETV
vector 412  GridScenario.node[51].veinsmobility  posy  ETV
vector 406  GridScenario.node[50].veinsmobility  acceleration  ETV
vector 407  GridScenario.node[50].veinsmobility  co2emission  ETV
103	179	40	2.0112626154758
103	387	41	2.0629800736412
103	824	42	1.9966291240232
103	1497	43	2.0319792589609
103	1823	44	2.0504705083689
103	2469	45	2.0064807348252
103	3291	46	2.0480707224564
103	3796	47	1.9949530464289
103	4677	48	2.0421626472498
103	5776	49	2.0413201138198
103	6282	50	2.0043630976961
103	7390	51	2.0222521189271
103	8595	52	0.973
103	9154	53	0.973
103	10434	54	0.973
103	11686	55	0.973
103	12408	56	3.3437445378155
103	13711	57	5.1869483201966
103	15339	58	5.9814872754377
103	16282	59	7.0361067445545
103	17988	60	8.3004778240671
103	19753	61	0.973
103	20973	62	0.973
103	22702	63	0.973
103	24702	64	0.973
103	25999	65	2.7198668787267
103	28107	66	5.0135272112523
103	30184	67	5.9117544835805
103	31752	68	6.6920180256174
103	33955	69	7.9542284647445
103	36489	70	2.9028382019424
103	38146	71	0.973
103	40557	72	0.973
103	43273	73	0.973
103	45204	74	0.973
103	47881	75	5.1686244810306
103	51096	76	5.6620191886657
103	53074	77	6.7059032257648
103	56058	78	7.9666871421904
103	59344	79	6.5100733010888
103	61476	80	2.0107777650453
103	64483	81	2.050676382649
103	68211	82	2.0142690895597
103	70402	83	2.0166683795796
103	73866	84	2.0112717095898
103	77707	85	2.0467216707335
103	80433	86	2.0317521626482
103	83884	87	2.0205726125108
103	87888	88	2.0168553790895
103	90679	89	2.0270682507426
103	93980	90	2.0640196598409
103	98110	91	2.0189472215672
103	101142	92	2.0400356605721
103	104959	93	0.973
103	109731	94	0.973
103	112906	95	0.973
103	117270	96	0.973
103	121963	97	0.973
103	125307	98	5.2302366472325
103	129472	99	5.4842680291311
103	134526	100	6.6088677204963
103	138019	101	7.7731061809827
103	142701	102	7.258395916059
103	147994	103	2.0247811793177
102	179	40	-0.0048511555604644
102	387	41	0.010279637435453
102	824	42	-0.0092534810870433
102	1497	43	0.0012681233105258
102	1823	44	0.0065882168677636
102	2469	45	-0.0063553994661198
102	3291	46	0.0058861822290339
102	3796	47	-0.0096859436512453
102	4677	48	0.0042878334156704
102	5776	49	0.0039160704717496
102	6282	50	-0.0069129675976001
102	7390	51	-0.0015224510119296
102	8595	52	-1.912705235859
102	9154	53	-3.1387515395563
102	10434	54	-2.8046540226574
102	11686	55	-2.3208796881806
102	12408	56	1.5508917047603
102	13711	57	2.0826610621998
102	15339	58	1.943271854846
102	16282	59	1.9414108231933
102	17988	60	1.9899777410377
102	19753	61	-0.96057441275859
102	20973	62	-3.1694358700127
102	22702	63	-2.8365160013963
102	24702	64	-2.3669179497097
102	25999	65	1.1238109030623
102	28107	66	2.0690190133746
102	30184	67	1.9704157660305
102	31752	68	1.8745732067984
102	33955	69	1.9435905345266
102	36489	70	0.29846777208685
102	38146	71	-3.2394631180642
102	40557	72	-2.9465930768939
102	43273	73	-2.5046540609343
102	45204	74	-0.16708250431177
102	47881	75	2.3229797502672
102	51096	76	1.9681835651949
102	53074	77	1.956916940449
102	56058	78	2.0045858790467
102	59344	79	1.3380422753028
102	61476	80	-0.0051146591342981
102	64483	81	0.0065982017247013
102	68211	82	-0.0041456965745894
102	70402	83	-0.0033288916863974
102	73866	84	-0.0047967565206335
102	77707	85	0.0056222762514366
102	80433	86	0.001117277205223
102	83884	87	-0.0021562871101768
102	87888	88	-0.0031709895359828
102	90679	89	-0.00011624364042717
102	93980	90	0.010593441437232
102	98110	91	-0.0027784684365617
102	101142	92	0.0034138789754365
102	104959	93	-0.33365705154114
102	109731	94	-3.2718403619297
102	112906	95	-2.980302867076
102	117270	96	-2.571193420154
102	121963	97	-0.74288258673961
102	125307	98	2.4391067918313
102	129472	99	1.9393117214634
102	134526	100	1.9648329852572
102	138019	101	1.984364335506
102	142701	102	1.5625939851386
102	147994	103	-0.00082199115282933
101	179	40	13.888893973607
101	387	41	13.899173611042
101	824	42	13.889920129955
101	1497	43	13.891188253266
101	1823	44	13.897776470134
101	2469	45	13.891421070667
101	3291	46	13.897307252896
101	3796	47	13.887621309245
101	4677	48	13.891909142661
101	5776	49	13.895825213133
101	6282	50	13.888912245535
101	7390	51	13.887389794523
101	8595	52	11.974684558664
101	9154	53	8.8359330191079
101	10434	54	6.0312789964505
101	11686	55	3.7103993082699
101	12408	56	5.2612910130302
101	13711	57	7.34395207523
101	15339	58	9.287223930076
101	16282	59	11.228634753269
101	17988	60	13.218612494307
101	19753	61	12.258038081549
101	20973	62	9.0886022115358
101	22702	63	6.2520862101395
101	24702	64	3.8851682604299
101	25999	65	5.0089791634921
101	28107	66	7.0779981768667
101	30184	67	9.0484139428972
101	31752	68	10.922987149696
101	33955	69	12.866577684222
101	36489	70	13.165045456309
101	38146	71	9.9255823382449
101	40557	72	6.978989261351
101	43273	73	4.4743352004167
101	45204	74	4.307252696105
101	47881	75	6.6302324463722
101	51096	76	8.5984160115671
101	53074	77	10.555332952016
101	56058	78	12.559918831063
101	59344	79	13.897961106366
101	61476	80	13.892846447231
101	64483	81	13.899444648956
101	68211	82	13.895298952381
101	70402	83	13.891970060695
101	73866	84	13.887173304174
101	77707	85	13.892795580426
101	80433	86	13.893912857631
101	83884	87	13.891756570521
101	87888	88	13.888585580985
101	90679	89	13.888469337344
101	93980	90	13.899062778782
101	98110	91	13.896284310345
101	101142	92	13.899698189321
101	104959	93	13.566041137779
101	109731	94	10.29420077585
101	112906	95	7.3138979087737
101	117270	96	4.7427044886197
101	121963	97	3.9998219018801
101	125307	98	6.4389286937114
101	129472	99	8.3782404151749
101	134526	100	10.343073400432
101	138019	101	12.327437735938
101	142701	102	13.890031721077
101	147994	103	13.889209729924
100	179	40	43.35
100	387	41	43.35
100	824	42	43.35
100	1497	43	43.35
100	1823	44	43.35
100	2469	45	43.35
100	3291	46	43.35
100	3796	47	43.35
100	4677	48	43.35
100	5776	49	43.35
100	6282	50	43.35
100	7390	51	43.35
100	8595	52	43.35
100	9154	53	43.35
100	10434	54	43.35
100	11686	55	43.35
100	12408	56	43.35
100	13711	57	43.35
100	15339	58	44.07735587139
100	16282	59	49.178091801624
100	17988	60	59.145474196596
100	19753	61	71.380608066965
100	20973	62	84.755582018049
100	22702	63	95.390775445863
100	24702	64	103.01815479382
100	25999	65	108.03377514041
100	28107	66	111.98355620147
100	30184	67	118.10568944941
100	31752	68	126.00201586096
100	33955	69	135.87136657554
100	36489	70	147.7767567808
100	38146	71	161.31996371219
100	40557	72	172.82242824716
100	43273	73	181.23081038848
100	45204	74	186.90677040479
100	47881	75	190.72065457052
100	51096	76	196.25819001969
100	53074	77	203.21343546754
100	56058	78	206.49378984876
100	59344	79	209.95
100	61476	80	209.95
100	64483	81	209.95
100	68211	82	209.95
100	70402	83	209.95
100	73866	84	209.95
100	77707	85	213.25
100	80433	86	213.25
100	83884	87	213.25
100	87888	88	213.25
100	90679	89	213.25
100	93980	90	213.25
100	98110	91	213.25
100	101142	92	213.25
100	104959	93	213.25
100	109731	94	213.25
100	112906	95	213.25
100	117270	96	213.25
100	121963	97	213.25
100	125307	98	213.25
100	129472	99	213.69339494579
100	134526	100	220.63928506784
100	138019	101	230.03332084852
100	142701	102	241.3685080149
100	147994	103	254.64881826051
99	179	40	264.26898197962
99	387	41	250.37485133233
99	824	42	236.48157244958
99	1497	43	222.58901493481
99	1823	44	208.69607121795
99	2469	45	194.80243340832
99	3291	46	180.90806419266
99	3796	47	167.01446426409
99	4677	48	153.12083256085
99	5776	49	139.22696734558
99	6282	50	125.3336781543
99	7390	51	111.4400528901
99	8595	52	97.546212443869
99	9154	53	84.214228181356
99	10434	54	73.847362885518
99	11686	55	66.458982028248
99	12408	56	61.643806561564
99	13711	57	57.555513964566
99	15339	58	51.240549496037
99	16282	59	45.050604927103
99	17988	60	40.05
99	19753	61	40.05
99	20973	62	40.05
99	22702	63	40.05
99	24702	64	40.05
99	25999	65	40.05
99	28107	66	40.05
99	30184	67	40.392239071447
99	31752	68	41.947222253906
99	33955	69	43.313236428254
99	36489	70	43.35
99	38146	71	43.35
99	40557	72	43.35
99	43273	73	43.35
99	45204	74	43.35
99	47881	75	43.35
99	51096	76	43.721288913172
99	53074	77	46.4878774731
99	56058	78	55.252671900526
99	59344	79	66.808696329624
99	61476	80	80.243681323903
99	64483	81	94.137680881325
99	68211	82	108.03105776301
99	70402	83	121.92534581036
99	73866	84	135.81839307575
99	77707	85	149.71212738916
99	80433	86	163.60504207138
99	83884	87	177.49840145853
99	87888	88	191.39219809259
99	90679	89	205.28563156614
99	93980	90	219.17857730737
99	98110	91	233.07150786237
99	101142	92	246.96544827015
99	104959	93	260.85913173735
99	109731	94	274.73451378044
99	112906	95	286.62337717017
99	117270	96	295.38290440529
99	121963	97	301.36013644156
99	125307	98	305.22628042544
99	129472	99	310.43378120245
99	134526	100	311.75
99	138019	101	311.75
99	142701	102	311.75
99	147994	103	311.75
vector 413  GridScenario.node[51].veinsmobility  speed  ETV
vector 416  GridScenario.node[52].appl  numInfectedSignal:vector  ETV
attr source  numInfectedSignal
attr title  "numInfected, vector"
vector 419  GridScenario.node[52].veinsmobility  posx  ETV
vector 420  GridScenario.node[52].veinsmobility  posy  ETV
vector 414  GridScenario.node[51].veinsmobility  acceleration  ETV
vector 415  GridScenario.node[51].veinsmobility  co2emission  ETV
vector 421  GridScenario.node[52].veinsmobility  speed  ETV
272	33955	69	14
279	38146	71	4.2665302583525
279	40557	72	5.4967836200343
279	43273	73	6.4261868739966
279	45204	74	0.973
279	47881	75	0.973
279	51096	76	0.973
279	53074	77	4.2084355421777
279	56058	78	5.2020931108514
279	59344	79	5.8822437955218
279	61476	80	7.0684455132834
279	64483	81	8.2567046828105
279	68211	82	0.973
279	70402	83	0.973
279	73866	84	0.973
279	77707	85	0.973
279	80433	86	2.4050771914049
279	83884	87	5.3158325584111
279	87888	88	5.993783852593
279	90679	89	7.1390606333815
279	93980	90	7.9971892909536
279	98110	91	4.8972425787696
279	101142	92	2.0100748952045
279	104959	93	2.0245232205588
279	109731	94	2.0413621413598
279	112906	95	2.0460837713966
279	117270	96	2.0130051379526
279	121963	97	2.0422447361393
279	125307	98	2.0086718212282
279	129472	99	2.0371372611988
279	134526	100	2.0431481048018
279	138019	101	2.0106909222291
279	142701	102	2.0339902360227
279	147994	103	2.0278043681178
279	152154	104	2.0317950451359
279	156679	105	2.0156291359244
279	162117	106	2.0467048824529
278	38146	71	1.9107830658923
278	40557	72	2.0034422511826
278	43273	73	1.9428851744172
278	45204	74	-1.6416567457783
278	47881	75	-2.7518785180889
278	51096	76	-2.2604489797559
278	53074	77	2.1018598842409
278	56058	78	2.0192111746317
278	59344	79	1.863538382801
278	61476	80	1.925786652405
278	64483	81	1.9576780056739
278	68211	82	-0.90289892710503
278	70402	83	-3.1723432827376
278	73866	84	-2.8573451727227
278	77707	85	-2.402921977989
278	80433	86	0.89208724947636
278	83884	87	2.2339065306636
278	87888	88	1.993367871063
278	90679	89	2.0041466480044
278	93980	90	1.9266784322329
278	98110	91	0.85687091458257
278	101142	92	-0.005205900633241
278	104959	93	-0.00086321617988894
278	109731	94	0.0040437519382692
278	112906	95	0.0052912253921384
278	117270	96	-0.0044513590941211
278	121963	97	0.0041541133956056
278	125307	98	-0.00569927380071
278	129472	99	0.0027202161159359
278	134526	100	0.0043808053836685
278	138019	101	-0.005154586442746
278	142701	102	0.0017505746725952
278	147994	103	-9.3814441003204e-005
278	152154	104	0.0010654437553601
278	156679	105	-0.0036517415717245
278	162117	106	0.0054618310062224
277	36489	70	4.2513481624059
277	38146	71	6.1621312282982
277	40557	72	8.1655734794808
277	43273	73	10.108458653898
277	45204	74	8.4668019081196
277	47881	75	5.7149233900307
277	51096	76	3.4544744102748
277	53074	77	5.5563342945157
277	56058	78	7.5755454691474
277	59344	79	9.4390838519484
277	61476	80	11.364870504353
277	64483	81	13.322548510027
277	68211	82	12.419649582922
277	70402	83	9.2473063001846
277	73866	84	6.389961127462
277	77707	85	3.987039149473
277	80433	86	4.8791263989493
277	83884	87	7.1130329296129
277	87888	88	9.1064008006759
277	90679	89	11.11054744868
277	93980	90	13.037225880913
277	98110	91	13.894096795496
277	101142	92	13.888890894863
277	104959	93	13.888027678683
277	109731	94	13.892071430621
277	112906	95	13.897362656013
277	117270	96	13.892911296919
277	121963	97	13.897065410315
277	125307	98	13.891366136514
277	129472	99	13.89408635263
277	134526	100	13.898467158013
277	138019	101	13.893312571571
277	142701	102	13.895063146243
277	147994	103	13.894969331802
277	152154	104	13.896034775558
277	156679	105	13.892383033986
277	162117	106	13.897844864992
276	33955	69	462.6314346751
276	36489	70	462.6314346751
276	38146	71	465.8989157062
276	40557	72	471.11367892972
276	43273	73	478.28910623302
276	45204	74	487.44153617572
276	47881	75	497.22057453995
276	51096	76	504.26594065694
276	53074	77	508.79787804905
276	56058	78	513.09295195462
276	59344	79	519.67477984945
276	61476	80	527.95490168867
276	64483	81	538.29925873663
276	68211	82	550.65732022262
276	70402	83	564.13677128128
276	73866	84	574.93115284752
276	77707	85	582.701969785
276	80433	86	587.83659282875
276	83884	87	591.73492234377
276	87888	88	596.63361435977
276	90679	89	596.75
276	93980	90	596.75
276	98110	91	596.75
276	101142	92	596.75
276	104959	93	596.75
276	109731	94	596.75
276	112906	95	596.75
276	117270	96	596.75
276	121963	97	596.75
276	125307	98	596.75
276	129472	99	596.75
276	134526	100	596.75
276	138019	101	596.75
276	142701	102	596.75
276	147994	103	596.75
276	152154	104	596.75
276	156679	105	596.75
276	162117	106	596.75
275	33955	69	311.75
275	36489	70	311.75
275	38146	71	311.75
275	40557	72	311.75
275	43273	73	311.75
275	45204	74	311.75
275	47881	75	311.75
275	51096	76	311.75
275	53074	77	311.75
275	56058	78	311.75
275	59344	79	312.21276004752
275	61476	80	314.12904779655
275	64483	81	311.75
275	68211	82	311.75
275	70402	83	311.75
275	73866	84	311.75
275	77707	85	311.75
275	80433	86	311.75
275	83884	87	311.75
275	87888	88	309.48307616165
275	90679	89	301.36475645309
275	93980	90	291.27191571089
275	98110	91	279.21178437994
275	101142	92	265.50997429402
275	104959	93	251.61621389549
275	109731	94	237.72305295006
275	112906	95	223.82874291619
275	117270	96	209.9351030817
275	121963	97	196.04122535103
275	125307	98	182.14701832435
275	129472	99	168.25332048825
275	134526	100	154.35948714652
275	138019	101	140.46667809176
275	142701	102	126.57337745172
275	147994	103	112.67945983615
275	152154	104	98.785695519464
275	156679	105	84.892387089122
275	162117	106	70.998885276102
vector 424  GridScenario.node[53].appl  numInfectedSignal:vector  ETV
attr source  numInfectedSignal
attr title  "numInfected, vector"
vector 427  GridScenario.node[53].veinsmobility  posx  ETV
vector 428  GridScenario.node[53].veinsmobility  posy  ETV
vector 422  GridScenario.node[52].veinsmobility  acceleration  ETV
vector 423  GridScenario.node[52].veinsmobility  co2emission  ETV
vector 429  GridScenario.node[53].veinsmobility  speed  ETV
vector 432  GridScenario.node[54].appl  numInfectedSignal:vector  ETV
attr source  numInfectedSignal
attr title  "numInfected, vector"
vector 435  GridScenario.node[54].veinsmobility  posx  ETV
vector 436  GridScenario.node[54].veinsmobility  posy  ETV
vector 430  GridScenario.node[53].veinsmobility  acceleration  ETV
vector 431  GridScenario.node[53].veinsmobility  co2emission  ETV
160	387	41	2
167	1497	43	4.316452007351
167	1823	44	5.4074641018044
167	2469	45	6.5381812717443
167	3291	46	7.4387581565228
167	3796	47	8.307512213548
167	4677	48	2.0510588168855
167	5776	49	2.0004439836712
167	6282	50	2.032069202937
167	7390	51	2.0241098256122
167	8595	52	2.0575180045514
167	9154	53	2.0164412076473
167	10434	54	2.0283791051061
167	11686	55	2.0353585012092
167	12408	56	2.0227881717111
167	13711	57	2.0409356921903
167	15339	58	2.028914490772
167	16282	59	0.973
167	17988	60	0.973
167	19753	61	0.973
167	20973	62	0.973
167	22702	63	1.7436894748334
167	24702	64	5.1219958680989
167	25999	65	5.7785938416066
167	28107	66	6.7477171696588
167	30184	67	7.7437203159597
167	31752	68	3.4977848907608
167	33955	69	0.973
167	36489	70	0.973
167	38146	71	0.973
167	40557	72	1.213100672026
167	43273	73	5.1442967341517
167	45204	74	5.6925231946425
167	47881	75	6.551698935769
167	51096	76	7.6296132888808
167	53074	77	6.9205188138479
167	56058	78	0.973
167	59344	79	0.973
167	61476	80	0.973
167	64483	81	0.973
167	68211	82	5.0975037566792
167	70402	83	5.4539925160504
167	73866	84	6.2801114607667
167	77707	85	7.3996299003372
167	80433	86	8.4099418027897
167	83884	87	2.0269646849147
167	87888	88	2.036705655596
167	90679	89	2.0315400721606
167	93980	90	2.0474235790897
167	98110	91	2.002154451552
167	101142	92	2.0371953176915
167	104959	93	2.0391291020125
167	109731	94	2.0135996154452
167	112906	95	2.0429271719879
167	117270	96	2.033436921773
167	121963	97	2.0056636722357
167	125307	98	2.0404795906803
167	129472	99	2.0048265854721
167	134526	100	0.973
167	138019	101	0.973
167	142701	102	0.973
167	147994	103	0.973
167	152154	104	5.1319417319083
167	156679	105	5.4158060688404
167	162117	106	6.3864442404423
167	166348	107	7.5937293558748
167	171225	108	8.0767427719353
167	176605	109	2.0489531823095
166	1497	43	1.9644278821596
166	1823	44	1.979981195701
166	2469	45	1.9950735934328
166	3291	46	1.9307085849901
166	3796	47	1.8762869196173
166	4677	48	0.006845693768236
166	5776	49	-0.0080297015863469
166	6282	50	0.0013777179284951
166	7390	51	-0.00097083022142819
166	8595	52	0.008739897723542
166	9154	53	-0.0034223836432208
166	10434	54	0.00013889421988367
166	11686	55	0.0021575198555368
166	12408	56	-0.001549347926165
166	13711	57	0.0037553582810794
166	15339	58	0.00016124053346012
166	16282	59	-1.1255238655667
166	17988	60	-3.2068437078194
166	19753	61	-2.8946226692069
166	20973	62	-2.4476434392136
166	22702	63	0.36490424982118
166	24702	64	2.2254324530407
166	25999	65	1.9746221945032
166	28107	66	1.9369590554542
166	30184	67	1.9161074222016
166	31752	68	0.48839509998904
166	33955	69	-3.2430341773071
166	36489	70	-2.9224180955293
166	38146	71	-2.5128111970653
166	40557	72	-0.10886933899476
166	43273	73	2.3022887984197
166	45204	74	1.976880970356
166	47881	75	1.9028802775922
166	51096	76	1.9152444118289
166	53074	77	1.4603395887385
166	56058	78	-3.242531558876
166	59344	79	-3.0120708850531
166	61476	80	-2.625168328163
166	64483	81	-1.2981577419273
166	68211	82	2.4611672409379
166	70402	83	1.9818850698564
166	73866	84	1.8938059241215
166	77707	85	1.9229694683237
166	80433	86	1.9068492918705
166	83884	87	-0.00014436731603951
166	87888	88	0.0026838347592868
166	90679	89	0.0011071036697832
166	93980	90	0.0056764358261123
166	98110	91	-0.0076121807638554
166	101142	92	0.0027707023832484
166	104959	93	0.0032487771704321
166	109731	94	-0.0042465390749271
166	112906	95	0.0043788085018761
166	117270	96	0.0014993550088249
166	121963	97	-0.0065954585312866
166	125307	98	0.0036910380469628
166	129472	99	-0.0067539372066854
166	134526	100	-3.2970520638707
166	138019	101	-3.0051138854822
166	142701	102	-2.6203342033472
166	147994	103	-1.1878198200148
166	152154	104	2.4601848469726
166	156679	105	1.9548210248723
166	162117	106	1.9245700933379
166	166348	107	1.9696285989647
166	171225	108	1.806487307103
166	176605	109	0.0060767354613631
165	824	42	4.1418021744009
165	1497	43	6.1062300565605
165	1823	44	8.0862112522615
165	2469	45	10.081284845694
165	3291	46	12.011993430684
165	3796	47	13.888280350302
165	4677	48	13.89512604407
165	5776	49	13.887096342484
165	6282	50	13.888474060412
165	7390	51	13.887503230191
165	8595	52	13.896243127914
165	9154	53	13.892820744271
165	10434	54	13.892959638491
165	11686	55	13.895117158346
165	12408	56	13.89356781042
165	13711	57	13.897323168701
165	15339	58	13.897484409235
165	16282	59	12.771960543668
165	17988	60	9.5651168358486
165	19753	61	6.6704941666418
165	20973	62	4.2228507274282
165	22702	63	4.5877549772494
165	24702	64	6.8131874302901
165	25999	65	8.7878096247933
165	28107	66	10.724768680247
165	30184	67	12.640876102449
165	31752	68	13.129271202438
165	33955	69	9.886237025131
165	36489	70	6.9638189296018
165	38146	71	4.4510077325365
165	40557	72	4.3421383935417
165	43273	73	6.6444271919614
165	45204	74	8.6213081623175
165	47881	75	10.52418843991
165	51096	76	12.439432851739
165	53074	77	13.899772440477
165	56058	78	10.657240881601
165	59344	79	7.6451699965479
165	61476	80	5.020001668385
165	64483	81	3.7218439264576
165	68211	82	6.1830111673956
165	70402	83	8.164896237252
165	73866	84	10.058702161373
165	77707	85	11.981671629697
165	80433	86	13.888520921568
165	83884	87	13.888376554252
165	87888	88	13.891060389011
165	90679	89	13.892167492681
165	93980	90	13.897843928507
165	98110	91	13.890231747743
165	101142	92	13.893002450126
165	104959	93	13.896251227297
165	109731	94	13.892004688222
165	112906	95	13.896383496724
165	117270	96	13.897882851732
165	121963	97	13.891287393201
165	125307	98	13.894978431248
165	129472	99	13.888224494041
165	134526	100	10.591172430171
165	138019	101	7.5860585446885
165	142701	102	4.9657243413413
165	147994	103	3.7779045213265
165	152154	104	6.2380893682991
165	156679	105	8.1929103931714
165	162117	106	10.117480486509
165	166348	107	12.087109085474
165	171225	108	13.893596392577
165	176605	109	13.899673128038
164	387	41	453.25
164	824	42	453.25
164	1497	43	453.25
164	1823	44	449.95
164	2469	45	449.95
164	3291	46	449.95
164	3796	47	446.65
164	4677	48	446.65
164	5776	49	446.65
164	6282	50	446.65
164	7390	51	446.65
164	8595	52	446.65
164	9154	53	446.65
164	10434	54	446.65
164	11686	55	446.65
164	12408	56	446.65
164	13711	57	446.65
164	15339	58	446.65
164	16282	59	446.65
164	17988	60	446.65
164	19753	61	446.65
164	20973	62	446.65
164	22702	63	446.65
164	24702	64	446.65
164	25999	65	446.17568476025
164	28107	66	442.80633809159
164	30184	67	433.66744580325
164	31752	68	421.94502445023
164	33955	69	408.54791043679
164	36489	70	397.07832224409
164	38146	71	388.69932283957
164	40557	72	383.04828203041
164	43273	73	379.23197771957
164	45204	74	373.64493256281
164	47881	75	366.10887482409
164	51096	76	356.71401735697
164	53074	77	345.2261205824
164	56058	78	331.85798647992
164	59344	79	319.58869803431
164	61476	80	310.48276735967
164	64483	81	304.20433451388
164	68211	82	300.21744760269
164	70402	83	295.20531846062
164	73866	84	293.25
164	77707	85	293.25
164	80433	86	293.25
164	83884	87	293.25
164	87888	88	293.25
164	90679	89	293.25
164	93980	90	293.25
164	98110	91	293.25
164	101142	92	293.25
164	104959	93	293.25
164	109731	94	293.25
164	112906	95	293.25
164	117270	96	293.25
164	121963	97	293.25
164	125307	98	293.25
164	129472	99	293.25
164	134526	100	293.25
164	138019	101	293.25
164	142701	102	293.25
164	147994	103	293.25
164	152154	104	293.25
164	156679	105	293.42803808382
164	162117	106	299.8571695245
164	166348	107	309.02597398467
164	171225	108	320.12548058297
164	176605	109	333.1863332326
163	387	41	612.6367455715
163	824	42	612.6367455715
163	1497	43	615.85002831452
163	1823	44	620.98790713752
163	2469	45	628.11347534332
163	3291	46	637.21124107999
163	3796	47	648.28488419355
163	4677	48	661.27191711792
163	5776	49	675.16518119435
163	6282	50	689.05862602193
163	7390	51	702.95159542516
163	8595	52	716.84481451907
163	9154	53	730.7383650418
163	10434	54	744.63200262287
163	11686	55	758.52524105841
163	12408	56	772.41859277816
163	13711	57	786.31208687251
163	15339	58	800.20561366677
163	16282	59	814.09877892339
163	17988	60	827.80109985816
163	19753	61	838.93488398095
163	20973	62	847.01031665106
163	22702	63	852.40191772096
163	24702	64	856.22207880006
163	25999	65	861.98191816564
163	28107	66	868.75678203363
163	30184	67	871.64751650252
163	31752	68	878.25
163	33955	69	878.25
163	36489	70	878.25
163	38146	71	878.25
163	40557	72	878.25
163	43273	73	878.25
163	45204	74	878.04222524855
163	47881	75	876.87358701992
163	51096	76	875.18534549861
163	53074	77	878.25
163	56058	78	878.25
163	59344	79	878.25
163	61476	80	878.25
163	64483	81	878.25
163	68211	82	878.25
163	70402	83	878.40991874447
163	73866	84	884.68440018999
163	77707	85	893.81176883115
163	80433	86	904.837793448
163	83884	87	917.80561148998
163	87888	88	931.69880728571
163	90679	89	945.59261192966
163	93980	90	959.48593633333
163	98110	91	973.37999396879
163	101142	92	987.27368508601
163	104959	93	1001.1673452284
163	109731	94	1015.0606123247
163	112906	95	1028.9542432974
163	117270	96	1042.8468089215
163	121963	97	1056.7402410487
163	125307	98	1070.6340820734
163	129472	99	1084.5276054664
163	134526	100	1098.4207859766
163	138019	101	1110.6236848039
163	142701	102	1119.6699213652
163	147994	103	1125.8954678501
163	152154	104	1129.8579873637
163	156679	105	1134.9243778632
163	162117	106	1136.75
163	166348	107	1136.75
163	171225	108	1136.75
163	176605	109	1136.75
vector 437  GridScenario.node[54].veinsmobility  speed  ETV
vector 440  GridScenario.node[55].appl  numInfectedSignal:vector  ETV
attr source  numInfectedSignal
attr title  "numInfected, vector"
vector 443  GridScenario.node[55].veinsmobility  posx  ETV
vector 444  GridScenario.node[55].veinsmobility  posy  ETV
vector 438  GridScenario.node[54].veinsmobility  acceleration  ETV
vector 439  GridScenario.node[54].veinsmobility  co2emission  ETV
vector 445  GridScenario.node[55].veinsmobility  speed  ETV
200	7390	51	7
207	9154	53	4.5757504073122
207	10434	54	5.3693127753007
207	11686	55	6.4247227637129
207	12408	56	0.973
207	13711	57	0.973
207	15339	58	0.973
207	16282	59	4.4364847654806
207	17988	60	5.0177733029105
207	19753	61	6.1429014971748
207	20973	62	7.2528947114324
207	22702	63	8.2367673525297
207	24702	64	3.6325495760402
207	25999	65	1.9906909770875
207	28107	66	2.0471865744701
207	30184	67	2.0360218353072
207	31752	68	2.0079315359118
207	33955	69	2.0262962563779
207	36489	70	2.058797547172
207	38146	71	2.0219943721571
207	40557	72	1.9952881702641
207	43273	73	2.0477537931261
207	45204	74	2.0120641154915
207	47881	75	2.0320525556112
207	51096	76	2.0476429782282
207	53074	77	2.0096449209266
207	56058	78	0.973
207	59344	79	0.973
207	61476	80	0.973
207	64483	81	0.973
207	68211	82	3.4143808949424
207	70402	83	5.3204103134724
207	73866	84	5.942675431236
207	77707	85	7.0913305772008
207	80433	86	8.3894322772976
207	83884	87	0.973
207	87888	88	0.973
207	90679	89	0.973
207	93980	90	0.973
207	98110	91	2.8540981827936
207	101142	92	5.193517546236
207	104959	93	5.8725982899951
207	109731	94	7.0017893919584
207	112906	95	8.0288322806206
207	117270	96	4.9363672284254
207	121963	97	2.0091008126668
207	125307	98	2.0589842576924
207	129472	99	2.0137985748893
207	134526	100	2.0275872576612
207	138019	101	2.0068156295372
207	142701	102	2.0464693234515
207	147994	103	2.0361948631403
207	152154	104	2.0281121959369
207	156679	105	2.0385263314717
207	162117	106	1.9909784894869
207	166348	107	2.0643667897652
207	171225	108	2.0064584777425
207	176605	109	2.052207941602
207	181347	110	1.9944383682988
207	186106	111	2.0428199701287
207	191799	112	2.0120938812534
206	9154	53	2.0558391190127
206	10434	54	1.9165587640272
206	11686	55	1.9274364829149
206	12408	56	-1.8009958189315
206	13711	57	-2.7338368484184
206	15339	58	-2.243799500799
206	16282	59	2.2375123166333
206	17988	60	1.9234382229328
206	19753	61	1.9594336560149
206	20973	62	1.9685083926269
206	22702	63	1.9343661626286
206	24702	64	0.47887471324584
206	25999	65	-0.010965325223049
206	28107	66	0.0057375886489179
206	30184	67	0.0023319353219122
206	31752	68	-0.0058798317790494
206	33955	69	-0.00038212045119224
206	36489	70	0.0090464420947249
206	38146	71	-0.0018839704559657
206	40557	72	-0.0095738553237172
206	43273	73	0.0059199751161518
206	45204	74	-0.0046009918104399
206	47881	75	0.0013302621340845
206	51096	76	0.0058086968960698
206	53074	77	-0.0053766240079405
206	56058	78	-1.9390608698787
206	59344	79	-3.1498790900025
206	61476	80	-2.7892728243413
206	64483	81	-2.3287318208871
206	68211	82	1.5991987524101
206	70402	83	2.1342792912621
206	73866	84	1.9152355436426
206	77707	85	1.9507381362647
206	80433	86	2.0052529625091
206	83884	87	-1.1040560702222
206	87888	88	-3.150424039525
206	90679	89	-2.835598816581
206	93980	90	-2.3522374583466
206	98110	91	1.2189094664459
206	101142	92	2.1338138083496
206	104959	93	1.9322097021707
206	109731	94	1.9575087973177
206	112906	95	1.9386158478274
206	117270	96	0.86844816402167
206	121963	97	-0.0055219956459478
206	125307	98	0.0090975726100151
206	129472	99	-0.0042640032898635
206	134526	100	-0.00014193339482915
206	138019	101	-0.0061606839955779
206	142701	102	0.0055167567755561
206	147994	103	0.0023756923354235
206	152154	104	-3.6670412868034e-005
206	156679	105	0.0029817410081154
206	162117	106	-0.01089075095579
206	166348	107	0.010701925441156
206	171225	108	-0.0063947023430373
206	176605	109	0.0070517275033062
206	181347	110	-0.0099003239038868
206	186106	111	0.004417478481308
206	191799	112	-0.0046198603690151
205	8595	52	4.2754520284061
205	9154	53	6.3312911474188
205	10434	54	8.247849911446
205	11686	55	10.175286394361
205	12408	56	8.3742905754294
205	13711	57	5.640453727011
205	15339	58	3.396654226212
205	16282	59	5.6341665428453
205	17988	60	7.5576047657782
205	19753	61	9.5170384217931
205	20973	62	11.48554681442
205	22702	63	13.419912977049
205	24702	64	13.898787690294
205	25999	65	13.887822365071
205	28107	66	13.89355995372
205	30184	67	13.895891889042
205	31752	68	13.890012057263
205	33955	69	13.889629936812
205	36489	70	13.898676378907
205	38146	71	13.896792408451
205	40557	72	13.887218553127
205	43273	73	13.893138528243
205	45204	74	13.888537536433
205	47881	75	13.889867798567
205	51096	76	13.895676495463
205	53074	77	13.890299871455
205	56058	78	11.951239001576
205	59344	79	8.8013599115737
205	61476	80	6.0120870872324
205	64483	81	3.6833552663453
205	68211	82	5.2825540187554
205	70402	83	7.4168333100175
205	73866	84	9.3320688536602
205	77707	85	11.282806989925
205	80433	86	13.288059952434
205	83884	87	12.184003882212
205	87888	88	9.0335798426869
205	90679	89	6.1979810261058
205	93980	90	3.8457435677592
205	98110	91	5.0646530342051
205	101142	92	7.1984668425547
205	104959	93	9.1306765447254
205	109731	94	11.088185342043
205	112906	95	13.02680118987
205	117270	96	13.895249353892
205	121963	97	13.889727358246
205	125307	98	13.898824930856
205	129472	99	13.894560927566
205	134526	100	13.894418994172
205	138019	101	13.888258310176
205	142701	102	13.893775066952
205	147994	103	13.896150759287
205	152154	104	13.896114088874
205	156679	105	13.899095829882
205	162117	106	13.888205078926
205	166348	107	13.898907004368
205	171225	108	13.892512302025
205	176605	109	13.899564029528
205	181347	110	13.889663705624
205	186106	111	13.894081184105
205	191799	112	13.889461323736
204	7390	51	427.36938639884
204	8595	52	427.36938639884
204	9154	53	424.09789179127
204	10434	54	418.78455819773
204	11686	55	411.4777188779
204	12408	56	402.24684038278
204	13711	57	392.51528561732
204	15339	58	385.55624458601
204	16282	59	381.09500989287
204	17988	60	376.73484334145
204	19753	61	370.24101268542
204	20973	62	364.3756607337
204	22702	63	363.35
204	24702	64	363.35
204	25999	65	363.35
204	28107	66	363.35
204	30184	67	363.35
204	31752	68	363.35
204	33955	69	363.35
204	36489	70	363.35
204	38146	71	363.35
204	40557	72	363.35
204	43273	73	363.35
204	45204	74	363.35
204	47881	75	363.35
204	51096	76	363.35
204	53074	77	363.35
204	56058	78	363.35
204	59344	79	363.35
204	61476	80	363.35
204	64483	81	363.35
204	68211	82	363.35
204	70402	83	363.35
204	73866	84	364.09097991594
204	77707	85	369.30980299569
204	80433	86	379.3402766782
204	83884	87	391.64213870295
204	87888	88	405.00798278326
204	90679	89	415.57833557663
204	93980	90	423.14787548569
204	98110	91	428.11353680479
204	101142	92	432.08942159249
204	104959	93	438.25588801171
204	109731	94	444.61537019765
204	112906	95	446.65
204	117270	96	446.65
204	121963	97	446.65
204	125307	98	446.65
204	129472	99	446.65
204	134526	100	446.65
204	138019	101	446.65
204	142701	102	446.65
204	147994	103	446.65
204	152154	104	446.65
204	156679	105	446.65
204	162117	106	446.65
204	166348	107	446.65
204	171225	108	446.65
204	176605	109	446.65
204	181347	110	446.65
204	186106	111	446.65
204	191799	112	446.65
203	7390	51	871.65
203	8595	52	871.65
203	9154	53	871.65
203	10434	54	871.65
203	11686	55	871.65
203	12408	56	871.65
203	13711	57	871.65
203	15339	58	871.65
203	16282	59	871.65
203	17988	60	871.65
203	19753	61	870.58819481587
203	20973	62	864.69884531919
203	22702	63	854.31401537679
203	24702	64	841.85964482654
203	25999	65	828.02944064081
203	28107	66	814.13601438851
203	30184	67	800.24288870229
203	31752	68	786.34915922694
203	33955	69	772.45584954829
203	36489	70	758.56143149976
203	38146	71	744.66770680138
203	40557	72	730.77438845873
203	43273	73	716.8809231379
203	45204	74	702.98718806328
203	47881	75	689.09361261348
203	51096	76	675.19951258333
203	53074	77	661.30701114074
203	56058	78	647.4142333741
203	59344	79	634.10066511421
203	61476	80	623.76315324734
203	64483	81	616.40172905061
203	68211	82	611.60931391099
203	70402	83	607.50834415828
203	73866	84	601.14484478802
203	77707	85	594.97144844594
203	80433	86	593.35
203	83884	87	593.35
203	87888	88	593.35
203	90679	89	593.35
203	93980	90	593.35
203	98110	91	593.35
203	101142	92	593.35
203	104959	93	594.00567122838
203	109731	94	598.62229631249
203	112906	95	608.32374749456
203	117270	96	620.38827226748
203	121963	97	634.09150615347
203	125307	98	647.98473317336
203	129472	99	661.87888400281
203	134526	100	675.77254782601
203	138019	101	689.66592382063
203	142701	102	703.55856979395
203	147994	103	717.45265702538
203	152154	104	731.34676596006
203	156679	105	745.24050325552
203	162117	106	759.13396852175
203	166348	107	773.02726739505
203	171225	108	786.92096562803
203	176605	109	800.81436963635
203	181347	110	814.70799272007
203	186106	111	828.60099673711
203	191799	112	842.49410805452
vector 448  GridScenario.node[56].appl  numInfectedSignal:vector  ETV
attr source  numInfectedSignal
attr title  "numInfected, vector"
vector 451  GridScenario.node[56].veinsmobility  posx  ETV
vector 452  GridScenario.node[56].veinsmobility  posy  ETV
vector 446  GridScenario.node[55].veinsmobility  acceleration  ETV
vector 447  GridScenario.node[55].veinsmobility  co2emission  ETV
vector 453  GridScenario.node[56].veinsmobility  speed  ETV
7	179	40	2.0355634906795
7	387	41	2.0517578163149
7	824	42	1.9966792222877
7	1497	43	2.0365215106283
7	1823	44	2.0277917597997
7	2469	45	2.0416455381739
7	3291	46	2.0031045853626
7	3796	47	2.0525689653861
7	4677	48	2.003290268506
7	5776	49	2.0457757642096
7	6282	50	0.973
7	7390	51	0.973
7	8595	52	0.973
7	9154	53	0.973
7	10434	54	0.973
7	11686	55	0.973
7	12408	56	0.973
7	13711	57	0.973
7	15339	58	0.973
7	16282	59	1.4971173903788
7	17988	60	2.849940108916
7	19753	61	3.8316912400473
7	20973	62	4.9265414942819
7	22702	63	5.7773152647286
7	24702	64	7.0568810944803
7	25999	65	8.1431933727818
7	28107	66	4.9151129794577
7	30184	67	1.9954993617911
7	31752	68	2.021569611735
7	33955	69	2.0359850717638
7	36489	70	2.0229217007098
7	38146	71	2.0408992572355
7	40557	72	2.0448331848716
7	43273	73	2.0171199138164
7	45204	74	2.0113103282204
7	47881	75	2.0430345429875
7	51096	76	2.0155127781449
7	53074	77	2.0225802657469
7	56058	78	2.0434785997265
[...]
70	1823	44	-2.6083718215048
70	2469	45	-1.0341637213036
70	3291	46	2.4354835465704
70	3796	47	1.9881595151939
70	4677	48	1.9171670086209
70	5776	49	1.9287221187511
70	6282	50	1.7602340414972
70	7390	51	-2.6632195679256
70	8595	52	-3.070886741706
70	9154	53	-2.7014518684647
70	10434	54	-2.1996245969777
70	11686	55	2.5873354090403
70	12408	56	1.9758398114303
70	13711	57	1.9241457253648
70	15339	58	1.9442988265171
70	16282	59	1.9717557697578
70	17988	60	0.2324064184892
70	19753	61	0.0043335319356981
70	20973	62	-0.0029647366546559
70	22702	63	0.002640271506273
70	24702	64	-0.0021058471619622
70	25999	65	-0.003152546463534
70	28107	66	0.010727058346383
70	30184	67	-0.0017065812358634
70	31752	68	-0.00031420588493347
70	33955	69	-0.0070753573034885
70	36489	70	0.0067051234799429
70	38146	71	-0.0056929786563842
70	40557	72	0.0028279895607852
70	43273	73	-2.7488395338392
70	45204	74	-3.0628280331621
70	47881	75	-2.6881848063286
70	51096	76	-2.0915677926126
70	53074	77	2.5739445606768
70	56058	78	1.8816367693376
70	59344	79	1.9480527516303
70	61476	80	1.9067944565117
70	64483	81	1.9320584809875
70	68211	82	0.3546514064645
70	70402	83	-0.0020881163072772
70	73866	84	-0.0013477841154668
70	77707	85	-0.005268946455093
70	80433	86	-0.0034517998101666
70	83884	87	0.0023361179274506
70	87888	88	0.0044205985292791
70	90679	89	0.0016626777555793
70	93980	90	-0.0072934746805107
70	98110	91	0.0041801580844911
70	101142	92	-0.0021932994725642
70	104959	93	0.0074348845814818
70	109731	94	-0.0022359102678013
70	112906	95	-0.00086903367424362
70	117270	96	-1.7828043148234
70	121963	97	-3.1421295797879
70	125307	98	-2.8231143916498
70	129472	99	-2.3441656239702
70	134526	100	1.3130264364329
70	138019	101	2.1177517082602
70	142701	102	1.9640364961398
70	147994	103	1.9457334093151
70	152154	104	1.9583212599943
70	156679	105	-0.66532235385279
70	162117	106	-3.1907349695102
70	166348	107	-2.8486309477957
70	171225	108	-2.4065289959714
70	176605	109	0.90485659607814
70	181347	110	2.222244160488
70	186106	111	1.9650567918559
70	191799	112	1.8814326108917
70	196453	113	1.9538573760812
70	201366	114	0.97952771077759
70	207034	115	-0.0029118666928252
70	211878	116	-0.0054543211653364
70	216778	117	0.0077169896746057
70	222567	118	-0.0024167270374029
70	227392	119	-0.00031386308185688
70	232428	120	0.0046436440425452
70	236971	121	-0.010807048796908
70	242133	122	0.0046717929071747
70	246724	123	-0.0010521626030098
69	179	40	12.519536622641
69	387	41	13.784448364813
69	824	42	10.495182419152
69	1497	43	7.5015254641957
69	1823	44	4.8931536426909
69	2469	45	3.8589899213873
69	3291	46	6.2944734679577
69	3796	47	8.2826329831516
69	4677	48	10.199799991772
69	5776	49	12.128522110524
69	6282	50	13.888756152021
69	7390	51	11.225536584095
69	8595	52	8.1546498423892
69	9154	53	5.4531979739245
69	10434	54	3.2535733769468
69	11686	55	5.8409087859871
69	12408	56	7.8167485974174
69	13711	57	9.7408943227822
69	15339	58	11.685193149299
69	16282	59	13.656948919057
69	17988	60	13.889355337546
69	19753	61	13.893688869482
69	20973	62	13.890724132827
69	22702	63	13.893364404334
69	24702	64	13.891258557172
69	25999	65	13.888106010708
69	28107	66	13.898833069054
69	30184	67	13.897126487819
69	31752	68	13.896812281934
69	33955	69	13.88973692463
69	36489	70	13.89644204811
69	38146	71	13.890749069454
69	40557	72	13.893577059014
69	43273	73	11.144737525175
69	45204	74	8.0819094920132
69	47881	75	5.3937246856846
69	51096	76	3.302156893072
69	53074	77	5.8761014537488
69	56058	78	7.7577382230863
69	59344	79	9.7057909747166
69	61476	80	11.612585431228
69	64483	81	13.544643912216
69	68211	82	13.89929531868
69	70402	83	13.897207202373
69	73866	84	13.895859418258
69	77707	85	13.890590471803
69	80433	86	13.887138671992
69	83884	87	13.88947478992
69	87888	88	13.893895388449
69	90679	89	13.895558066205
69	93980	90	13.888264591524
69	98110	91	13.892444749609
69	101142	92	13.890251450136
69	104959	93	13.897686334718
69	109731	94	13.89545042445
69	112906	95	13.894581390776
69	117270	96	12.111777075952
69	121963	97	8.9696474961642
69	125307	98	6.1465331045143
69	129472	99	3.8023674805441
69	134526	100	5.1153939169771
69	138019	101	7.2331456252373
69	142701	102	9.1971821213771
69	147994	103	11.142915530692
69	152154	104	13.101236790686
69	156679	105	12.435914436834
69	162117	106	9.2451794673235
69	166348	107	6.3965485195278
69	171225	108	3.9900195235564
69	176605	109	4.8948761196346
69	181347	110	7.1171202801226
69	186106	111	9.0821770719785
69	191799	112	10.96360968287
69	196453	113	12.917467058951
69	201366	114	13.896994769729
69	207034	115	13.894082903036
69	211878	116	13.888628581871
69	216778	117	13.896345571545
69	222567	118	13.893928844508
69	227392	119	13.893614981426
69	232428	120	13.898258625469
69	236971	121	13.887451576672
69	242133	122	13.892123369579
69	246724	123	13.891071206976
68	179	40	276.14181651934
68	387	41	264.59022106175
68	824	42	251.16929256446
68	1497	43	239.06324806341
68	1823	44	230.10603536445
68	2469	45	223.95798044173
68	3291	46	220.02682797573
68	3796	47	214.88130878528
68	4677	48	207.64887100339
68	5776	49	198.60852226544
68	6282	50	187.4555883618
68	7390	51	174.35579313703
68	8595	52	161.55286910202
68	9154	53	151.8996244139
68	10434	54	145.14320026037
68	11686	55	140.84701072983
68	12408	56	136.28113874562
68	13711	57	133.25
68	15339	58	133.25
68	16282	59	133.25
68	17988	60	133.25
68	19753	61	133.25
68	20973	62	133.25
68	22702	63	133.25
68	24702	64	133.25
68	25999	65	133.25
68	28107	66	133.25
68	30184	67	133.25
68	31752	68	133.25
68	33955	69	133.25
68	36489	70	133.25
68	38146	71	133.25
68	40557	72	133.25
68	43273	73	129.95
68	45204	74	129.95
68	47881	75	129.95
68	51096	76	129.95
68	53074	77	129.95
68	56058	78	129.93447672559
68	59344	79	129.37158448605
68	61476	80	127.2764517141
68	64483	81	126.65
68	68211	82	126.65
68	70402	83	126.65
68	73866	84	126.65
68	77707	85	126.65
68	80433	86	126.65
68	83884	87	126.65
68	87888	88	126.65
68	90679	89	126.65
68	93980	90	126.65
68	98110	91	126.65
68	101142	92	126.65
68	104959	93	126.65
68	109731	94	126.65
68	112906	95	126.65
68	117270	96	126.65
68	121963	97	126.65
68	125307	98	126.65
68	129472	99	126.65
68	134526	100	126.65
68	138019	101	126.65
68	142701	102	125.97454006
68	147994	103	121.24194330803
68	152154	104	111.42699016478
68	156679	105	99.299991397283
68	162117	106	85.888120201329
68	166348	107	75.08662453002
68	171225	108	67.311434568433
68	176605	109	62.172235246458
68	181347	110	58.261984343565
68	186106	111	53.364478010275
68	191799	112	53.25
68	196453	113	53.25
68	201366	114	53.25
68	207034	115	53.25
68	211878	116	53.25
68	216778	117	53.25
68	222567	118	53.25
68	227392	119	53.25
68	232428	120	53.25
68	236971	121	53.25
68	242133	122	53.25
68	246724	123	53.25
67	179	40	50.141395065001
67	387	41	53.25
67	824	42	53.25
67	1497	43	53.25
67	1823	44	53.25
67	2469	45	53.25
67	3291	46	53.25
67	3796	47	53.137190630479
67	4677	48	52.253542409133
67	5776	49	50.330861385233
67	6282	50	53.25
67	7390	51	53.25
67	8595	52	53.25
67	9154	53	53.25
67	10434	54	53.25
67	11686	55	53.25
67	12408	56	53.259620322303
67	13711	57	58.224235899817
67	15339	58	67.008336214643
67	16282	59	77.729133950769
67	17988	60	90.407755332543
67	19753	61	104.28752875697
67	20973	62	118.18101386961
67	22702	63	132.07437753238
67	24702	64	145.96780916878
67	25999	65	159.86080754202
67	28107	66	173.75475871798
67	30184	67	187.64863237654
67	31752	68	201.54142507382
67	33955	69	215.43446111296
67	36489	70	229.3281549543
67	38146	71	243.22178809036
67	40557	72	257.11543013221
67	43273	73	271.00915923587
67	45204	74	283.73981318871
67	47881	75	293.31273820403
67	51096	76	299.9980511856
67	53074	77	304.23818416865
67	56058	78	308.85210109185
67	59344	79	315.65676376451
67	61476	80	324.1485408402
67	64483	81	334.79293676633
67	68211	82	347.37967297575
67	70402	83	361.24600025199
67	73866	84	375.14044502961
67	77707	85	389.03475592962
67	80433	86	402.92821458698
67	83884	87	416.82153505056
67	87888	88	430.7149257607
67	90679	89	444.60871991717
67	93980	90	458.50228470033
67	98110	91	472.3950355542
67	101142	92	486.28817783634
67	104959	93	500.18156825193
67	109731	94	514.07535009053
67	112906	95	527.96861482276
67	117270	96	541.86179536217
67	121963	97	555.27303032914
67	125307	98	565.77439316152
67	129472	99	573.2819836494
67	134526	100	578.19677726664
67	138019	101	582.19700870691
67	142701	102	588.39489760319
67	147994	103	594.69696017941
67	152154	104	603.25
67	156679	105	603.25
67	162117	106	603.25
67	166348	107	603.25
67	171225	108	603.25
67	176605	109	603.25
67	181347	110	603.25
67	186106	111	605.53057845277
67	191799	112	613.63492260841
67	196453	113	623.6911565279
67	201366	114	635.63729270472
67	207034	115	649.30060344445
67	211878	116	663.19364288133
67	216778	117	677.08708452132
67	222567	118	690.98071246809
67	227392	119	704.87353013813
67	232428	120	718.76682008598
67	236971	121	732.66023707061
67	242133	122	746.55373045936
67	246724	123	760.44731030741
79	179	40	0.973
79	387	41	1.9220491881508
79	824	42	5.2142806906061
79	1497	43	5.6566987610028
79	1823	44	6.7977814496384
79	2469	45	7.7349414691394
79	3291	46	3.0323637001023
79	3796	47	0.973
79	4677	48	0.973
79	5776	49	0.973
79	6282	50	1.3709990002861
79	7390	51	5.2738373323383
79	8595	52	5.6370652529585
79	9154	53	6.9122012484449
79	10434	54	7.8223422110564
79	11686	55	5.8089883100015
79	12408	56	0.973
79	13711	57	0.973
79	15339	58	0.973
79	16282	59	0.973
79	17988	60	5.1007643659185
79	19753	61	5.3696619736363
79	20973	62	6.5768715553077
79	22702	63	7.4170607213663
79	24702	64	8.0548403896644
79	25999	65	0.973
79	28107	66	0.973
79	30184	67	0.973
79	31752	68	0.973
79	33955	69	5.0048696226598
79	36489	70	5.1618949651783
79	38146	71	6.2809632779555
79	40557	72	7.2927332578563
79	43273	73	8.5981943674329
79	45204	74	0.973
79	47881	75	0.973
79	51096	76	0.973
79	53074	77	0.973
79	56058	78	3.2638355111231
79	59344	79	5.3154011034221
79	61476	80	5.9938999639877
79	64483	81	6.9862133980274
79	68211	82	7.9948193328507
79	70402	83	0.973
79	73866	84	0.973
79	77707	85	0.973
79	80433	86	0.973
79	83884	87	1.8089670648306
79	87888	88	5.1085657916023
79	90679	89	5.8317957098365
79	93980	90	6.8216509640654
79	98110	91	7.6150285987929
79	101142	92	6.1667657477563
79	104959	93	2.0591510365527
79	109731	94	2.0290968598753
79	112906	95	2.0144647827914
79	117270	96	2.0246014774379
79	121963	97	2.0304268857439
79	125307	98	2.0470095386713
79	129472	99	2.0285870605363
79	134526	100	2.0201607740097
79	138019	101	2.0225521167458
79	142701	102	2.0453846974842
79	147994	103	2.0248329050677
79	152154	104	2.027603346539
79	156679	105	1.9973281496431
79	162117	106	0.973
79	166348	107	0.973
79	171225	108	0.973
79	176605	109	0.973
79	181347	110	0.973
79	186106	111	5.1994142634394
79	191799	112	5.6084988656542
79	196453	113	6.6036335538267
79	201366	114	7.7417464633771
79	207034	115	0.973
79	211878	116	0.973
79	216778	117	0.973
79	222567	118	1.6368098404951
79	227392	119	5.1594844244449
79	232428	120	5.4745667285974
79	236971	121	6.8298344946895
79	242133	122	7.7661146579846
79	246724	123	5.7819420540979
78	179	40	-2.4404335040921
78	387	41	0.51240348774593
78	824	42	2.2434909890375
78	1497	43	1.907768150157
78	1823	44	1.9464146678131
78	2469	45	1.906511047946
78	3291	46	0.34720486521721
78	3796	47	-3.2237388965237
78	4677	48	-2.9291003621916
78	5776	49	-2.4873976318477
78	6282	50	0.037238903472493
78	7390	51	2.3380615355898
78	8595	52	1.9319603189714
78	9154	53	2.0063286911801
78	10434	54	1.9419893558505
78	11686	55	1.141737040264
78	12408	56	-3.280562561059
78	13711	57	-3.0060917891717
78	15339	58	-2.6025376990942
78	16282	59	-1.0380718686724
78	17988	60	2.4225809112582
78	19753	61	1.9280430384916
78	20973	62	1.9858305475085
78	22702	63	1.906877741487
78	24702	64	1.7993081330585
78	25999	65	-2.6331710554471
78	28107	66	-3.0694063807923
78	30184	67	-2.7141118900692
78	31752	68	-2.1994696111477
78	33955	69	2.5555505217906
78	36489	70	1.938850554266
78	38146	71	1.965956377591
78	40557	72	1.9430380336521
78	43273	73	1.9987638422935
78	45204	74	-1.6848036176337
78	47881	75	-3.1414051761016
78	51096	76	-2.7981536408042
78	53074	77	-2.3303755927829
78	56058	78	1.4989032501541
78	59344	79	2.1455982700158
78	61476	80	1.9420231883009
78	64483	81	1.9213422938839
78	68211	82	1.9070868989688
78	70402	83	-0.38275905562963
78	73866	84	-3.2103697613584
78	77707	85	-2.8888754598203
78	80433	86	-2.4531051267132
78	83884	87	0.41842703904708
78	87888	88	2.2089735646746
78	90679	89	1.9898518307598
78	93980	90	1.95383343805
78	98110	91	1.8719308042142
78	101142	92	1.2366860105838
78	104959	93	0.0091859593114343
78	109731	94	0.00020645808312203
78	112906	95	-0.004040574717104
78	117270	96	-0.00098343376442678
78	121963	97	0.00073410731763524
78	125307	98	0.005516770589864
78	129472	99	1.6469058115476e-005
78	134526	100	-0.002425813616254
78	138019	101	-0.0016615025678188
78	142701	102	0.0050030338978395
78	147994	103	-0.0010987393879329
78	152154	104	-0.00026364313345439
78	156679	105	-0.0090336867971335
78	162117	106	-0.676243581577
78	166348	107	-3.2404199511082
78	171225	108	-2.9440578448494
78	176605	109	-2.5165778140465
78	181347	110	-0.25369887821179
78	186106	111	2.3505414368128
78	191799	112	1.9520517177493
78	196453	113	1.9303658561646
78	201366	114	1.9519024629015
78	207034	115	-2.7928712261376
78	211878	116	-2.9079479621014
78	216778	117	-2.463320804763
78	222567	118	0.27216617584356
78	227392	119	2.2518887782839
78	232428	120	1.8612120176658
78	236971	121	1.9849824265593
78	242133	122	1.9339754788049
78	246724	123	1.1402072115355
77	179	40	4.1613375292233
77	387	41	4.6737410169693
77	824	42	6.9172320060068
77	1497	43	8.8250001561639
77	1823	44	10.771414823977
77	2469	45	12.677925871923
77	3291	46	13.02513073714
77	3796	47	9.8013918406165
77	4677	48	6.8722914784249
77	5776	49	4.3848938465771
77	6282	50	4.4221327500496
77	7390	51	6.7601942856395
77	8595	52	8.6921546046109
77	9154	53	10.698483295791
77	10434	54	12.640472651641
77	11686	55	13.782209691905
77	12408	56	10.501647130846
77	13711	57	7.4955553416748
77	15339	58	4.8930176425806
77	16282	59	3.8549457739082
77	17988	60	6.2775266851664
77	19753	61	8.205569723658
77	20973	62	10.191400271167
77	22702	63	12.098278012654
77	24702	64	13.897586145712
77	25999	65	11.264415090265
77	28107	66	8.1950087094727
77	30184	67	5.4808968194035
77	31752	68	3.2814272082558
77	33955	69	5.8369777300464
77	36489	70	7.7758282843124
77	38146	71	9.7417846619034
77	40557	72	11.684822695555
77	43273	73	13.683586537849
77	45204	74	11.998782920215
77	47881	75	8.8573777441138
77	51096	76	6.0592241033095
77	53074	77	3.7288485105267
77	56058	78	5.2277517606808
77	59344	79	7.3733500306965
77	61476	80	9.3153732189974
77	64483	81	11.236715512881
77	68211	82	13.14380241185
77	70402	83	12.76104335622
77	73866	84	9.550673594862
77	77707	85	6.6617981350417
77	80433	86	4.2086930083285
77	83884	87	4.6271200473756
77	87888	88	6.8360936120502
77	90679	89	8.82594544281
77	93980	90	10.77977888086
77	98110	91	12.651709685074
77	101142	92	13.888395695658
77	104959	93	13.897581654969
77	109731	94	13.897788113052
77	112906	95	13.893747538335
77	117270	96	13.892764104571
77	121963	97	13.893498211889
77	125307	98	13.899014982478
77	129472	99	13.899031451537
77	134526	100	13.89660563792
77	138019	101	13.894944135353
77	142701	102	13.89994716925
77	147994	103	13.898848429862
77	152154	104	13.898584786729
77	156679	105	13.889551099932
77	162117	106	13.213307518355
77	166348	107	9.9728875672466
77	171225	108	7.0288297223972
77	176605	109	4.5122519083507
77	181347	110	4.2585530301389
77	186106	111	6.6090944669517
77	191799	112	8.561146184701
77	196453	113	10.491512040866
77	201366	114	12.443414503767
77	207034	115	9.6505432776296
77	211878	116	6.7425953155282
77	216778	117	4.2792745107651
77	222567	118	4.5514406866087
77	227392	119	6.8033294648926
77	232428	120	8.6645414825585
77	236971	121	10.649523909118
77	242133	122	12.583499387923
77	246724	123	13.723706599458
76	179	40	43.35
76	387	41	43.35
76	824	42	43.35
76	1497	43	43.8566302274
76	1823	44	47.456281304878
76	2469	45	56.681574709484
76	3291	46	68.427004676596
76	3796	47	81.83452696501
76	4677	48	93.209580369033
76	5776	49	101.50243551444
76	6282	50	107.07988074737
76	7390	51	110.89721868377
76	8595	52	116.56021392504
76	9154	53	124.14996252934
76	10434	54	133.68240739726
76	11686	55	145.35486496257
76	12408	56	158.84214427019
76	13711	57	170.94493414411
76	15339	58	179.89939862898
76	16282	59	186.04510519887
76	17988	60	189.97394926195
76	19753	61	195.1131666392
76	20973	62	202.28152052152
76	22702	63	211.287034872
76	24702	64	222.42866012775
76	25999	65	235.49322819091
76	28107	66	248.32450317371
76	30184	67	258.01123199655
76	31752	68	264.79719250379
76	33955	69	269.1174344242
76	36489	70	273.66735691671
76	38146	71	280.44547193556
76	40557	72	288.97160648028
76	43273	73	299.65586683058
76	45204	74	312.34987170014
76	47881	75	325.68701393199
76	51096	76	336.07939503321
76	53074	77	343.49107589134
76	56058	78	348.32571723365
76	59344	79	352.39157189911
76	61476	80	358.73903223581
76	64483	81	366.90069276136
76	68211	82	377.09847656621
76	70402	83	389.29481637596
76	73866	84	402.8506507872
76	77707	85	413.97171747756
76	80433	86	422.03562417388
76	83884	87	427.41772972531
76	87888	88	431.25549016056
76	90679	89	437.05532989209
76	93980	90	443.80754100107
76	98110	91	446.65
76	101142	92	449.95
76	104959	93	449.95
76	109731	94	449.95
76	112906	95	449.95
76	117270	96	449.95
76	121963	97	449.95
76	125307	98	449.95
76	129472	99	453.25
76	134526	100	453.25
76	138019	101	453.25
76	142701	102	453.25
76	147994	103	453.25
76	152154	104	453.25
76	156679	105	453.25
76	162117	106	453.25
76	166348	107	453.25
76	171225	108	453.25
76	176605	109	453.25
76	181347	110	453.25
76	186106	111	453.25
76	191799	112	454.03387397621
76	196453	113	461.46877121467
76	201366	114	471.00483976
76	207034	115	482.49412846899
76	211878	116	493.69396257716
76	216778	117	501.84194007597
76	222567	118	507.29586515333
76	227392	119	511.12243555685
76	232428	120	516.88717671134
76	236971	121	524.47733928288
76	242133	122	533.98327242614
76	246724	123	545.6080695332
75	179	40	67.799931228047
75	387	41	62.478256431813
75	824	42	58.638246936478
75	1497	43	52.791079019868
75	1823	44	46.085387590172
75	2469	45	36.75
75	3291	46	36.75
75	3796	47	36.75
75	4677	48	36.75
75	5776	49	36.75
75	6282	50	36.75
75	7390	51	36.75
75	8595	52	36.973531941067
75	9154	53	38.190274597849
75	10434	54	39.8451036701
75	11686	55	36.75
75	12408	56	36.75
75	13711	57	36.75
75	15339	58	36.75
75	16282	59	36.75
75	17988	60	36.75
75	19753	61	36.862385029895
75	20973	62	37.729283447449
75	22702	63	39.661116415574
75	24702	64	36.75
75	25999	65	36.75
75	28107	66	36.75
75	30184	67	36.75
75	31752	68	36.75
75	33955	69	36.75
75	36489	70	36.751333175287
75	38146	71	37.276284560521
75	40557	72	39.379894175266
75	43273	73	40.05
75	45204	74	40.05
75	47881	75	40.05
75	51096	76	40.05
75	53074	77	40.05
75	56058	78	40.05
75	59344	79	40.05
75	61476	80	40.44088578473
75	64483	81	42.168948214046
75	68211	82	43.35
75	70402	83	43.35
75	73866	84	43.35
75	77707	85	43.35
75	80433	86	43.35
75	83884	87	43.35
75	87888	88	43.35
75	90679	89	43.834765766713
75	93980	90	47.278121501778
75	98110	91	56.458670630969
75	101142	92	68.169191870129
75	104959	93	81.65124190717
75	109731	94	95.545099582072
75	112906	95	109.43918653129
75	117270	96	123.3329412198
75	121963	97	137.22602532623
75	125307	98	151.11907686789
75	129472	99	165.01246728184
75	134526	100	178.90583092078
75	138019	101	192.7990368086
75	142701	102	206.69265257648
75	147994	103	220.58577882007
75	152154	104	234.4789862402
75	156679	105	248.37340610413
75	162117	106	262.26695195615
75	166348	107	276.08952356631
75	171225	108	287.648704502
75	176605	109	296.10822165662
75	181347	110	301.8278138377
75	186106	111	305.64331074883
75	191799	112	310.98829577959
75	196453	113	311.75
75	201366	114	311.75
75	207034	115	311.75
75	211878	116	311.75
75	216778	117	311.75
75	222567	118	311.75
75	227392	119	311.75
75	232428	120	311.99864577399
75	236971	121	313.27104659163
75	242133	122	314.86821294854
75	246724	123	315.05
